31
01/09/2019 23:02, XYZ structure generated by mol3D Class, molSimplify
Ir 	0.000000	0.000000	0.000000
N 	-2.120000	-0.000421	-0.000881
C 	-2.632543	1.141795	-0.800266
C 	-2.607855	-1.267467	-0.595130
C 	-2.624172	0.124111	1.392128
H 	-2.214535	-1.371150	-1.622930
H 	-3.721744	-1.280122	-0.623285
H 	-2.248278	-2.124464	0.002489
H 	-2.245487	1.064739	1.831721
H 	-2.252732	-0.722838	1.996636
H 	-3.738439	0.124248	1.397768
H 	-2.276597	1.052380	-1.843204
H 	-2.251188	2.087395	-0.373866
H 	-3.746189	1.144379	-0.793434
N 	2.120000	-0.000421	-0.000881
C 	4.454243	-0.177240	-0.348371
O 	4.113540	0.499017	0.902253
C 	2.780988	0.539152	0.970330
C 	3.085140	-0.540316	-0.972768
H 	2.924058	-1.631687	-1.086675
H 	2.911167	-0.074225	-1.964198
H 	5.081222	-1.055109	-0.096135
H 	5.052527	0.527965	-0.958971
H 	2.286506	1.028525	1.829344
C 	0.000000	1.645321	-1.368400
N 	0.000001	2.586689	-2.151327
H 	-0.806768	3.018634	-2.607031
N 	0.000000	0.352035	2.090567
C 	0.000001	0.551886	3.277385
S 	-0.006925	0.815394	4.874439
H 	0.000000	-1.628954	-0.611644
