49
04/12/2019 10:43, XYZ structure generated by mol3D Class, molSimplify
Ir 	0.000000	0.000000	0.000000
P 	-2.430000	-0.000482	-0.001010
C 	-2.784270	-2.284365	-1.591017
C 	-3.205114	-0.951982	-1.381419
C 	-3.206005	1.668910	-0.145712
C 	-2.629831	2.590710	-1.045678
C 	-3.202379	3.858063	-1.221963
C 	-4.346387	4.222316	-0.492389
C 	-4.917092	3.312704	0.411560
C 	-4.353450	2.038158	0.584522
C 	-3.168179	-0.718829	1.523149
C 	-2.471786	-0.579690	2.740843
C 	-3.035911	-1.064927	3.928668
C 	-4.288027	-1.702316	3.908345
C 	-4.977283	-1.854189	2.694672
C 	-4.420719	-1.364536	1.502096
C 	-4.189490	-0.389211	-2.219473
C 	-4.747474	-1.152395	-3.258510
C 	-4.330823	-2.476452	-3.464819
C 	-3.351120	-3.038546	-2.628249
H 	-2.012252	-2.718374	-0.931699
H 	-1.717341	2.309106	-1.595080
H 	-2.745016	4.570410	-1.925671
H 	-4.789708	5.221464	-0.623709
H 	-5.808629	3.596028	0.992097
H 	-4.806596	1.330230	1.294710
H 	-1.478539	-0.104098	2.739897
H 	-2.485545	-0.956025	4.875844
H 	-4.724332	-2.090951	4.841617
H 	-5.953544	-2.362424	2.672317
H 	-4.959162	-1.492798	0.550315
H 	-4.524061	0.647317	-2.064103
H 	-5.514186	-0.705052	-3.909785
H 	-4.769709	-3.072215	-4.280265
H 	-3.019966	-4.076845	-2.784616
N 	2.120000	-0.000421	-0.000881
C 	4.454323	0.199527	-0.335037
O 	4.113341	-0.502549	0.901201
C 	2.780775	-0.538419	0.971348
C 	3.085353	0.537255	-0.973786
H 	2.924030	0.055586	-1.959678
H 	2.911862	1.625103	-1.103892
H 	5.080983	-0.479861	-0.945864
H 	5.053012	1.090780	-0.060574
H 	2.286107	-1.007356	1.841582
C 	0.000000	1.645321	-1.368400
O 	0.000001	2.550873	-2.121539
Br 	0.000000	0.416796	2.475153
H 	0.000000	-1.628954	-0.611644
