33
01/09/2019 21:21, XYZ structure generated by mol3D Class, molSimplify
Ir 	0.000000	0.000000	0.000000
C 	-2.140000	-0.000425	-0.000889
C 	-4.311928	0.541424	-0.416395
C 	-4.307038	-0.528799	0.437241
H 	-5.140042	1.106994	-0.853265
H 	-5.132080	-1.084270	0.892476
C 	-2.537286	-1.924645	1.556248
H 	-2.046090	-2.723263	0.967204
H 	-1.814026	-1.507545	2.288283
H 	-3.419852	-2.339592	2.076250
C 	-2.553924	1.934513	-1.540930
H 	-2.090844	2.746392	-0.945595
H 	-1.807238	1.564608	-2.269267
H 	-3.431743	2.331937	-2.082205
N 	-2.982599	0.845808	-0.679151
N 	-2.979606	-0.846992	0.676673
N 	2.120000	-0.000421	-0.000881
C 	2.632950	-0.830132	1.119314
C 	2.607710	-0.560270	-1.283554
C 	2.623912	1.388841	0.160972
H 	2.214580	-1.584993	-1.414764
H 	3.721602	-0.587839	-1.297191
H 	2.247828	0.060109	-2.124092
H 	2.245335	1.802894	1.113162
H 	2.252168	2.015834	-0.669335
H 	3.738177	1.394712	0.161031
H 	2.277199	-1.870362	1.001951
H 	2.251707	-0.429401	2.076119
H 	3.746595	-0.823136	1.121851
C 	0.000000	1.645321	-1.368400
O 	0.000001	2.550873	-2.121539
Cl 	0.000000	0.391888	2.327235
H 	0.000000	-1.628954	-0.611644
