38
01/09/2019 23:18, XYZ structure generated by mol3D Class, molSimplify
Ir 	0.000000	0.000000	0.000000
N 	-2.120000	-0.000421	-0.000881
C 	-2.632543	1.141795	-0.800266
C 	-2.607855	-1.267467	-0.595130
C 	-2.624172	0.124111	1.392128
H 	-2.214535	-1.371150	-1.622930
H 	-3.721744	-1.280122	-0.623285
H 	-2.248278	-2.124464	0.002489
H 	-2.245487	1.064739	1.831721
H 	-2.252732	-0.722838	1.996636
H 	-3.738439	0.124248	1.397768
H 	-2.276597	1.052380	-1.843204
H 	-2.251188	2.087395	-0.373866
H 	-3.746189	1.144379	-0.793434
C 	2.140000	-0.000425	-0.000889
C 	4.353189	-0.632113	0.435313
C 	4.352706	0.672686	-0.367837
H 	4.643919	-0.469655	1.500073
H 	4.701388	0.523640	-1.417133
C 	2.496746	2.298814	-0.926638
H 	2.317743	2.212825	-2.021297
H 	1.572477	2.627183	-0.410340
H 	3.284887	3.057934	-0.753153
C 	2.529394	-2.295870	0.931852
H 	2.333346	-2.213343	2.025034
H 	1.606356	-2.648133	0.435040
H 	3.325644	-3.049926	0.772011
N 	2.946907	-1.041138	0.350139
N 	2.934045	1.039971	-0.352583
H 	4.976162	1.467843	0.088541
H 	5.022724	-1.408669	0.012864
C 	0.000000	1.645321	-1.368400
N 	0.000001	2.586689	-2.151327
H 	-0.809976	3.054735	-2.563623
C 	0.000000	0.355356	2.110290
C 	0.000001	0.561186	3.332611
H 	-0.012967	0.735441	4.399605
H 	0.000000	-1.628954	-0.611644
