35
01/10/2019 17:33, XYZ structure generated by mol3D Class, molSimplify
Ir 	0.000000	0.000000	0.000000
N 	-2.120000	-0.000421	-0.000881
C 	-4.454548	-0.130805	0.364616
O 	-4.112741	0.377547	-0.962866
C 	-2.780129	0.408587	-1.034437
C 	-3.085999	-0.409751	1.031999
H 	-2.925075	-1.477120	1.286636
H 	-2.912846	0.181005	1.954748
H 	-5.081361	-1.034010	0.227838
H 	-5.053314	0.647607	0.878078
H 	-2.284887	0.782436	-1.949246
C 	2.140000	-0.000425	-0.000889
C 	4.352901	-0.741478	-0.204397
C 	4.352983	0.712480	0.278882
H 	4.643352	-1.452818	0.604469
H 	4.701943	1.420345	-0.509767
C 	2.497593	2.186523	1.165371
H 	2.318898	2.969877	0.395866
H 	1.573251	2.002447	1.748783
H 	3.285869	2.541272	1.858408
C 	2.528546	-2.190582	-1.159746
H 	2.332190	-2.974884	-0.393844
H 	1.605570	-2.036073	-1.748944
H 	3.324657	-2.553144	-1.840128
N 	2.946544	-0.938600	-0.572483
N 	2.934408	0.937432	0.570039
H 	4.976498	0.873748	1.181364
H 	5.022371	-0.917284	-1.070816
C 	0.000000	1.645321	-1.368400
N 	0.000001	2.586689	-2.151327
H 	-0.809238	3.090892	-2.520150
N 	0.000000	0.352035	2.090567
C 	0.000001	0.551886	3.277385
S 	-0.006113	0.814494	4.874591
H 	0.000000	-1.628954	-0.611644
