39
01/09/2019 15:31, XYZ structure generated by mol3D Class, molSimplify
Ir 	0.000000	0.000000	0.000000
P 	-2.430000	-0.000482	-0.001010
C 	-3.179247	0.947862	1.384613
C 	-3.179030	-1.670507	0.124111
C 	-3.182168	0.720751	-1.512689
H 	-2.839483	0.511141	2.343972
H 	-4.286765	0.925890	1.335655
H 	-2.823195	1.995239	1.336553
H 	-2.832719	-2.144525	1.062545
H 	-2.803768	-2.267045	-0.730045
H 	-4.286460	-1.621581	0.108252
H 	-2.838943	1.767435	-1.626554
H 	-4.289065	0.692713	-1.459167
H 	-2.823279	0.133835	-2.380457
C 	2.140000	-0.000425	-0.000889
C 	4.311977	-0.630835	0.261058
C 	4.306989	0.643131	-0.240022
H 	5.140142	-1.291682	0.532941
H 	5.131980	1.314953	-0.494045
C 	2.537110	2.309492	-0.890679
H 	2.045884	2.197824	-1.876714
H 	1.813849	2.735462	-0.163769
H 	3.419631	2.967273	-0.990611
C 	2.554100	-2.300828	0.906693
H 	2.091050	-2.190391	1.907393
H 	1.807418	-2.747250	0.222575
H 	3.431964	-2.968182	0.980758
N 	2.982676	-1.010553	0.393648
N 	2.979528	1.009369	-0.396126
C 	0.000000	1.645321	-1.368400
N 	0.000001	2.587135	-2.151698
C 	-0.909762	3.641416	-2.500941
H 	-1.160429	3.591291	-3.582016
H 	-0.435386	4.631374	-2.331073
H 	-1.858489	3.603775	-1.919786
N 	0.000000	0.352035	2.090567
C 	0.000001	0.551886	3.277385
S 	-0.004151	0.813072	4.874830
H 	0.000000	-1.628954	-0.611644
