25
04/12/2019 09:26, XYZ structure generated by mol3D Class, molSimplify
Ir 	0.000000	0.000000	0.000000
N 	-2.120000	-0.000421	-0.000881
C 	-2.822542	-1.151782	0.109377
C 	-4.225382	-1.127133	0.111309
N 	-4.939298	0.004181	0.004086
C 	-4.226632	1.135536	-0.108184
C 	-2.825329	1.150660	-0.111724
H 	-2.216731	-2.073136	0.202121
H 	-4.784083	-2.074509	0.203023
H 	-4.783641	2.084116	-0.200108
H 	-2.246671	2.081096	-0.204006
N 	2.120000	-0.000421	-0.000881
C 	4.454411	0.339270	-0.190193
O 	4.113110	-0.886784	0.529368
C 	2.780527	-0.952611	0.572124
C 	3.085601	0.951446	-0.574562
H 	2.924344	1.027293	-1.669211
H 	2.912327	1.958644	-0.143320
H 	5.081043	0.056169	-1.058851
H 	5.053219	0.973746	0.493152
H 	2.285639	-1.793722	1.091279
C 	0.000000	1.645321	-1.368400
O 	0.000001	2.550873	-2.121539
Br 	0.000000	0.416796	2.475153
H 	0.000000	-1.628954	-0.611644
