35
01/10/2019 10:10, XYZ structure generated by mol3D Class, molSimplify
Ir 	0.000000	0.000000	0.000000
P 	-2.430000	-0.000482	-0.001010
C 	-5.552916	-0.000628	0.001014
C 	-4.883912	1.213954	0.232785
C 	-3.487753	1.346549	0.259215
C 	-3.486183	-1.347933	-0.262114
C 	-4.879302	-1.214565	-0.233210
H 	-6.653623	-0.001844	0.000976
H 	-5.491134	2.118678	0.404456
H 	-3.027327	2.329269	0.446767
H 	-2.989326	-2.311595	-0.460226
H 	-5.484830	-2.120007	-0.408336
C 	2.140000	-0.000425	-0.000889
C 	4.353164	-0.661067	0.390215
C 	4.352731	0.696578	-0.319961
H 	4.643884	-0.573287	1.463717
H 	4.701424	0.621080	-1.377093
C 	2.496825	2.357780	-0.763991
H 	2.317836	2.348365	-1.861984
H 	1.572558	2.649361	-0.226057
H 	3.284985	3.102926	-0.537965
C 	2.529315	-2.355355	0.769463
H 	2.333253	-2.349280	1.865736
H 	1.606274	-2.672077	0.249277
H 	3.325545	-3.096447	0.557421
N 	2.946873	-1.063113	0.276697
N 	2.934080	1.061946	-0.279141
H 	4.976202	1.457945	0.190781
H 	5.022684	-1.406283	-0.085367
C 	0.000000	1.645321	-1.368400
O 	0.000001	2.550873	-2.121539
C 	0.000000	0.355356	2.110290
C 	0.000001	0.561186	3.332611
H 	0.009089	0.730176	4.400492
H 	0.000000	-1.628954	-0.611644
