27
01/09/2019 22:03, XYZ structure generated by mol3D Class, molSimplify
Ir 	0.000000	0.000000	0.000000
N 	-2.120000	-0.000421	-0.000881
C 	-4.270960	-0.634532	-0.156742
C 	-2.963945	-1.066691	-0.259687
N 	-4.193058	0.707370	0.166247
C 	-2.885792	1.065530	0.257256
H 	-4.980181	1.337817	0.319129
H 	-5.222996	-1.158245	-0.282395
H 	-2.568128	-2.058978	-0.494516
H 	-2.469485	2.054530	0.506626
N 	2.120000	-0.000421	-0.000881
C 	4.454528	0.380753	0.072518
O 	4.112795	-1.020877	-0.164370
C 	2.780188	-1.098368	-0.173969
C 	3.085940	1.097204	0.171531
H 	2.924945	1.858983	-0.618270
H 	2.912792	1.591619	1.149291
H 	5.081293	0.722052	-0.774868
H 	5.053322	0.427356	1.003841
H 	2.284998	-2.076248	-0.316945
C 	0.000000	1.645321	-1.368400
N 	0.000001	2.586689	-2.151327
H 	-0.747151	3.266375	-2.309154
N 	0.000000	0.352035	2.090567
C 	0.000001	0.551886	3.277385
S 	-0.001567	0.812178	4.874981
H 	0.000000	-1.628954	-0.611644
