32
01/09/2019 15:35, XYZ structure generated by mol3D Class, molSimplify
Ir 	0.000000	0.000000	0.000000
P 	-2.430000	-0.000482	-0.001010
C 	-3.179247	0.947862	1.384613
C 	-3.179030	-1.670507	0.124111
C 	-3.182168	0.720751	-1.512689
H 	-2.839483	0.511141	2.343972
H 	-4.286765	0.925890	1.335655
H 	-2.823195	1.995239	1.336553
H 	-2.832719	-2.144525	1.062545
H 	-2.803768	-2.267045	-0.730045
H 	-4.286460	-1.621581	0.108252
H 	-2.838943	1.767435	-1.626554
H 	-4.289065	0.692713	-1.459167
H 	-2.823279	0.133835	-2.380457
N 	2.120000	-0.000421	-0.000881
C 	2.632494	1.075495	-0.887521
C 	2.608973	0.232350	1.378707
C 	2.623104	-1.309406	-0.494455
H 	2.216448	1.195006	1.754263
H 	3.722889	0.255477	1.397644
H 	2.249434	-0.572841	2.044506
H 	2.243590	-1.480694	-1.518201
H 	2.251692	-2.118536	0.159826
H 	3.737365	-1.315412	-0.496899
H 	2.277345	2.056537	-0.521681
H 	2.250317	0.918251	-1.912520
H 	3.746133	1.068997	-0.892640
C 	0.000000	1.645321	-1.368400
O 	0.000001	2.550873	-2.121539
S 	0.000000	0.396870	2.356819
H 	0.000001	0.623377	3.701934
H 	0.000000	-1.628954	-0.611644
