36
01/09/2019 20:44, XYZ structure generated by mol3D Class, molSimplify
Ir 	0.000000	0.000000	0.000000
As 	-2.580000	-0.000512	-0.001072
C 	-3.391694	1.664159	-0.637679
C 	-3.417441	-0.282407	1.738697
C 	-3.405510	-1.383779	-1.105263
H 	-3.026517	2.496141	-0.005334
H 	-4.496720	1.608886	-0.589052
H 	-3.068715	1.843982	-1.680664
H 	-3.126077	0.547654	2.409597
H 	-2.997160	-1.230845	2.125427
H 	-4.519756	-0.340096	1.649622
H 	-3.105325	-1.235810	-2.159979
H 	-4.508642	-1.358601	-1.013825
H 	-2.999929	-2.346068	-0.737108
N 	2.120000	-0.000421	-0.000881
C 	2.632472	1.043903	-0.924533
C 	2.608979	0.280362	1.369740
C 	2.623119	-1.325827	-0.448475
H 	2.216443	1.255533	1.711474
H 	3.722895	0.304152	1.387849
H 	2.249456	-0.501107	2.063236
H 	2.243601	-1.532744	-1.465617
H 	2.251724	-2.111635	0.233648
H 	3.737381	-1.331898	-0.450716
H 	2.277312	2.037110	-0.593152
H 	2.250290	0.850978	-1.943417
H 	3.746111	1.037247	-0.929431
C 	0.000000	1.645321	-1.368400
N 	0.000001	2.587135	-2.151698
C 	0.996098	3.381696	-2.813220
H 	0.873987	4.453007	-2.545916
H 	0.873326	3.313915	-3.915145
H 	2.034749	3.073530	-2.557334
O 	0.000000	0.348714	2.070845
H 	0.000001	0.510783	3.033296
H 	0.000000	-1.628954	-0.611644
