38
01/09/2019 21:16, XYZ structure generated by mol3D Class, molSimplify
Ir 	0.000000	0.000000	0.000000
C 	-2.140000	-0.000425	-0.000889
C 	-4.311928	0.541424	-0.416395
C 	-4.307038	-0.528799	0.437241
H 	-5.140042	1.106994	-0.853265
H 	-5.132080	-1.084270	0.892476
C 	-2.537286	-1.924645	1.556248
H 	-2.046090	-2.723263	0.967204
H 	-1.814026	-1.507545	2.288283
H 	-3.419852	-2.339592	2.076250
C 	-2.553924	1.934513	-1.540930
H 	-2.090844	2.746392	-0.945595
H 	-1.807238	1.564608	-2.269267
H 	-3.431743	2.331937	-2.082205
N 	-2.982599	0.845808	-0.679151
N 	-2.979606	-0.846992	0.676673
C 	2.140000	-0.000425	-0.000889
C 	4.311932	0.546821	-0.409240
C 	4.307009	-0.568078	0.385160
H 	5.140053	1.121857	-0.833559
H 	5.132024	-1.158896	0.793530
C 	2.537210	-2.026663	1.420983
H 	2.046872	-1.679527	2.351092
H 	1.813196	-2.615479	0.819275
H 	3.419626	-2.641163	1.676398
C 	2.553982	2.011879	-1.438350
H 	2.090032	1.662859	-2.382250
H 	1.808023	2.610911	-0.881977
H 	3.431975	2.641061	-1.672339
N 	2.982627	0.883837	-0.628729
N 	2.979577	-0.885020	0.626251
C 	0.000000	1.645321	-1.368400
N 	0.000001	2.586689	-2.151327
H 	0.010575	3.584066	-1.927172
N 	0.000000	0.352035	2.090567
C 	0.000001	0.551886	3.277385
S 	-0.000048	0.812039	4.875004
H 	0.000000	-1.628954	-0.611644
