32
01/09/2019 15:32, XYZ structure generated by mol3D Class, molSimplify
Ir 	0.000000	0.000000	0.000000
P 	-2.430000	-0.000482	-0.001010
C 	-3.179247	0.947862	1.384613
C 	-3.179030	-1.670507	0.124111
C 	-3.182168	0.720751	-1.512689
H 	-2.839483	0.511141	2.343972
H 	-4.286765	0.925890	1.335655
H 	-2.823195	1.995239	1.336553
H 	-2.832719	-2.144525	1.062545
H 	-2.803768	-2.267045	-0.730045
H 	-4.286460	-1.621581	0.108252
H 	-2.838943	1.767435	-1.626554
H 	-4.289065	0.692713	-1.459167
H 	-2.823279	0.133835	-2.380457
N 	2.120000	-0.000421	-0.000881
C 	4.270850	-0.309447	-0.576525
C 	2.963759	-0.517583	-0.968750
N 	4.193182	0.339020	0.641896
C 	2.885977	0.516422	0.966319
H 	4.980415	0.644990	1.213776
H 	5.222795	-0.561904	-1.052449
H 	2.567767	-0.993333	-1.870582
H 	2.469840	1.005222	1.861595
C 	0.000000	1.645321	-1.368400
N 	0.000001	2.587135	-2.151698
C 	-0.845019	3.044797	-3.218297
H 	-0.269542	3.105107	-4.166590
H 	-1.212821	4.070990	-3.004862
H 	-1.726014	2.385059	-3.385132
C 	0.000000	0.355356	2.110290
N 	0.000001	0.551805	3.276906
H 	0.000000	-1.628954	-0.611644
