57
04/12/2019 10:34, XYZ structure generated by mol3D Class, molSimplify
Ir 	0.000000	0.000000	0.000000
P 	-2.430000	-0.000482	-0.001010
C 	-2.784270	-2.284365	-1.591017
C 	-3.205114	-0.951982	-1.381419
C 	-3.206005	1.668910	-0.145712
C 	-2.629831	2.590710	-1.045678
C 	-3.202379	3.858063	-1.221963
C 	-4.346387	4.222316	-0.492389
C 	-4.917092	3.312704	0.411560
C 	-4.353450	2.038158	0.584522
C 	-3.168179	-0.718829	1.523149
C 	-2.471786	-0.579690	2.740843
C 	-3.035911	-1.064927	3.928668
C 	-4.288027	-1.702316	3.908345
C 	-4.977283	-1.854189	2.694672
C 	-4.420719	-1.364536	1.502096
C 	-4.189490	-0.389211	-2.219473
C 	-4.747474	-1.152395	-3.258510
C 	-4.330823	-2.476452	-3.464819
C 	-3.351120	-3.038546	-2.628249
H 	-2.012252	-2.718374	-0.931699
H 	-1.717341	2.309106	-1.595080
H 	-2.745016	4.570410	-1.925671
H 	-4.789708	5.221464	-0.623709
H 	-5.808629	3.596028	0.992097
H 	-4.806596	1.330230	1.294710
H 	-1.478539	-0.104098	2.739897
H 	-2.485545	-0.956025	4.875844
H 	-4.724332	-2.090951	4.841617
H 	-5.953544	-2.362424	2.672317
H 	-4.959162	-1.492798	0.550315
H 	-4.524061	0.647317	-2.064103
H 	-5.514186	-0.705052	-3.909785
H 	-4.769709	-3.072215	-4.280265
H 	-3.019966	-4.076845	-2.784616
C 	2.140000	-0.000425	-0.000889
C 	4.311736	-0.595838	-0.336395
C 	4.307227	0.583352	0.359007
H 	5.139649	-1.217278	-0.689765
H 	5.132466	1.196807	0.732015
C 	2.537971	2.122705	1.271539
H 	2.047030	2.831160	0.576481
H 	1.814588	1.812438	2.054741
H 	3.420689	2.606067	1.728351
C 	2.553235	-2.132046	-1.254870
H 	2.089896	-2.852429	-0.551750
H 	1.806657	-1.867497	-2.027838
H 	3.430908	-2.601629	-1.735156
N 	2.982298	-0.933562	-0.553982
N 	2.979907	0.932378	0.551504
C 	0.000000	1.645321	-1.368400
N 	0.000001	2.586689	-2.151327
H 	0.810102	3.059293	-2.558142
N 	0.000000	0.352035	2.090567
C 	0.000001	0.553769	3.288568
O 	0.043184	0.749353	4.473601
H 	0.000000	-1.628954	-0.611644
