29
01/10/2019 10:21, XYZ structure generated by mol3D Class, molSimplify
Ir 	0.000000	0.000000	0.000000
N 	-2.120000	-0.000421	-0.000881
C 	-4.933636	-0.007712	-0.011270
C 	-4.211823	-1.209685	-0.045768
C 	-2.815366	-1.168264	-0.040306
C 	-2.815548	1.167146	0.037965
C 	-4.214129	1.193988	0.031657
H 	-6.034171	-0.009748	-0.016160
H 	-4.718037	-2.185097	-0.076455
H 	-2.207888	-2.083403	-0.067858
H 	-2.188216	2.076293	0.070753
H 	-4.724170	2.167630	0.063396
N 	2.120000	-0.000421	-0.000881
C 	4.933646	0.007679	0.005390
C 	4.212573	-0.052533	1.206794
C 	2.816088	-0.053870	1.165973
C 	2.814825	0.052753	-1.168313
C 	4.213394	0.060328	-1.195477
H 	6.034185	0.011736	0.007096
H 	4.719390	-0.099366	2.181252
H 	2.209175	-0.098397	2.080818
H 	2.186930	0.092324	-2.076801
H 	4.722832	0.105365	-2.168909
C 	0.000000	1.645321	-1.368400
O 	0.000001	2.550873	-2.121539
N 	0.000000	0.352035	2.090567
C 	0.000001	0.553769	3.288568
O 	0.000625	0.710457	4.480151
H 	0.000000	-1.628954	-0.611644
