51
04/12/2019 09:45, XYZ structure generated by mol3D Class, molSimplify
Ir 	0.000000	0.000000	0.000000
P 	-2.430000	-0.000482	-0.001010
C 	-3.231546	1.616199	0.424655
C 	-3.232589	-1.171512	1.198875
C 	-2.740560	-2.618097	1.144911
C 	-3.199747	-0.446605	-1.627546
C 	-2.607791	0.292410	-2.829731
C 	-2.741047	2.280567	1.711106
H 	-3.021842	2.278950	-0.439051
H 	-4.324469	1.411017	0.452084
H 	-3.047597	-0.736276	2.204210
H 	-4.328675	-1.105811	1.021039
H 	-3.062676	-1.543383	-1.739135
H 	-4.292434	-0.265890	-1.525247
H 	-1.658483	-2.676994	1.374710
H 	-3.286024	-3.241471	1.882001
H 	-2.889464	-3.076269	0.146298
H 	-2.663391	1.392797	-2.714975
H 	-1.536137	0.040424	-2.951611
H 	-3.144695	0.010621	-3.758071
H 	-2.810885	1.613627	2.595194
H 	-1.689079	2.604308	1.585444
H 	-3.348647	3.182244	1.928813
P 	2.430000	-0.000482	-0.001010
C 	3.231506	-0.784492	1.475554
C 	3.232637	1.675467	-0.047387
C 	2.740646	2.617171	-1.146820
C 	3.199740	-0.892894	-1.432184
C 	2.607748	-2.277468	-1.704771
C 	2.741004	-0.290006	2.836371
H 	3.021773	-1.868657	1.376559
H 	4.324435	-0.625178	1.343426
H 	3.047645	2.118845	0.954385
H 	4.328718	1.500209	-0.119743
H 	3.062698	-0.230841	-2.313699
H 	4.292423	-0.940358	-1.229999
H 	1.658574	2.825991	-1.034214
H 	3.286137	3.581588	-1.104784
H 	2.889551	2.194292	-2.160883
H 	2.663319	-2.939640	-0.818456
H 	1.536100	-2.196042	-1.972601
H 	3.144649	-2.768383	-2.541566
H 	2.810871	0.811980	2.946114
H 	1.689026	-0.601922	2.988967
H 	3.348582	-0.741753	3.646537
C 	0.000000	1.645321	-1.368400
O 	0.000001	2.550873	-2.121539
N 	0.000000	0.352035	2.090567
C 	0.000001	0.551886	3.277385
S 	-0.000048	0.812039	4.875004
H 	0.000000	-1.628954	-0.611644
