45
01/10/2019 10:31, XYZ structure generated by mol3D Class, molSimplify
Ir 	0.000000	0.000000	0.000000
C 	-2.140000	-0.000425	-0.000889
C 	-4.353062	0.612437	-0.463775
C 	-4.352832	-0.559959	0.522651
H 	-4.643712	1.572292	0.024928
H 	-4.701595	-1.509261	0.051477
C 	-2.497143	-1.601572	1.891082
H 	-2.318234	-2.613820	1.465572
H 	-1.572868	-1.214695	2.365112
H 	-3.285368	-1.675245	2.666194
C 	-2.528997	1.606269	-1.887134
H 	-2.332854	2.618153	-1.465339
H 	-1.605960	1.245151	-2.377550
H 	-3.325161	1.691516	-2.653306
N 	-2.946734	0.659883	-0.878715
N 	-2.934218	-0.661051	0.876271
H 	-4.976349	-0.376405	1.420864
H 	-5.022535	0.455423	-1.333795
C 	2.140000	-0.000425	-0.000889
C 	4.352971	0.464411	-0.612604
C 	4.352851	-0.528339	0.554443
H 	4.642731	-0.019274	-1.575266
H 	4.702487	-0.062518	1.506062
C 	2.496958	-1.901243	1.589786
H 	2.318932	-1.481102	2.604430
H 	1.572154	-2.372608	1.200922
H 	3.284751	-2.677225	1.658782
C 	2.529175	1.894240	-1.597603
H 	2.332152	1.478042	-2.611631
H 	1.606662	2.383261	-1.233270
H 	3.325758	2.660373	-1.679197
N 	2.946870	0.880463	-0.656940
N 	2.934082	-0.881630	0.654496
H 	4.975703	-1.425929	0.365651
H 	5.023076	1.333158	-0.451302
C 	0.000000	1.645321	-1.368400
N 	0.000001	2.587135	-2.151698
C 	0.000533	4.018980	-2.046970
H 	-0.890019	4.442754	-2.558244
H 	0.891081	4.442145	-2.558596
H 	0.000851	4.375172	-0.992281
N 	0.000000	0.352035	2.090567
O 	0.437858	-0.513166	2.873570
O 	-0.437857	1.425964	2.547096
H 	0.000000	-1.628954	-0.611644
