28

Ir -0.239347 -0.085284 -0.017000
As 2.126581 0.050631 0.027070
C 2.841662 0.993400 1.588120
C 2.928830 1.070430 -1.440691
C 3.167263 -1.610120 0.014574
H 2.373984 1.996335 1.607720
H 3.944176 1.081162 1.525305
H 2.552943 0.443553 2.503626
H 2.456303 2.071349 -1.439526
H 2.698604 0.565810 -2.397970
H 4.025154 1.157635 -1.308237
H 2.846023 -2.238722 0.866613
H 4.250641 -1.393512 0.088535
H 2.957668 -2.155712 -0.925218
N -2.350607 0.024621 0.007243
C -4.537662 -0.504622 0.129638
C -3.256005 -1.016132 0.138516
N -4.390270 0.862635 -0.008949
C -3.064410 1.153220 -0.080160
H -5.142835 1.550227 -0.048413
H -5.516300 -0.986614 0.210793
H -2.918725 -2.052648 0.234323
H -2.636582 2.157935 -0.181631
C -0.232444 -1.960785 -0.077515
N -0.221896 -3.182500 -0.045170
H -0.159613 -3.871479 -0.796343
C -0.168209 1.969979 -0.048144
N -0.116229 3.152174 -0.077401
