30

Ir -0.352708 -0.211045 -0.025710
N -2.473806 -0.022188 -0.052000
C -4.677704 -0.441604 -0.240078
C -3.418475 -1.002325 -0.304029
N -4.473832 0.893037 0.056187
C -3.138924 1.117285 0.163805
H -5.197861 1.602647 0.173329
H -5.675019 -0.868415 -0.380724
H -3.124881 -2.034533 -0.516760
H -2.671460 2.083863 0.379762
P 1.864752 -0.272434 -0.039431
C 5.000457 -0.325912 -0.073111
C 4.305781 -1.546018 -0.155068
C 2.909681 -1.656800 -0.149699
C 2.954583 1.080269 0.046429
C 4.344417 0.916108 0.021186
H 6.100680 -0.342504 -0.085332
H 4.895080 -2.475747 -0.230690
H 2.433772 -2.646707 -0.225253
H 2.519346 2.089492 0.119430
H 4.963800 1.827182 0.079101
C -0.436208 -2.073729 -0.023026
N -0.498988 -3.278832 -0.071444
C -0.481847 -4.556512 0.544898
H -0.573258 -4.483313 1.651070
H 0.464531 -5.089209 0.309797
H -1.313497 -5.186500 0.165623
N -0.282324 1.826024 0.026379
C 0.006759 2.992086 0.067386
S 0.391097 4.557333 0.126611
