31

Ir -0.162693 0.070681 -0.012824
P -2.424312 -0.057120 0.016270
C -3.091828 -1.083877 1.393715
C -3.168491 -0.834902 -1.480528
C -3.375831 1.515612 0.175543
H -2.623864 -2.084671 1.321005
H -4.196509 -1.167242 1.337807
H -2.796645 -0.627328 2.358083
H -2.707637 -1.834138 -1.602344
H -2.916630 -0.223041 -2.368126
H -4.269904 -0.924281 -1.384087
H -3.056832 2.044309 1.094322
H -4.465981 1.317885 0.215109
H -3.150440 2.166398 -0.691426
N 1.981513 -0.010117 -0.006028
C 4.799259 -0.140610 0.038571
C 4.019298 -1.199087 0.524935
C 2.624350 -1.103022 0.483383
C 2.739936 1.013985 -0.475510
C 4.137565 0.985267 -0.473460
H 5.898481 -0.190982 0.057242
H 4.480096 -2.109003 0.936152
H 1.972347 -1.920945 0.823328
H 2.188186 1.884860 -0.855183
H 4.693691 1.846705 -0.870928
C -0.176959 1.946515 0.155650
N -0.206716 3.152561 0.357219
H -0.272144 3.934379 -0.297089
C -0.222823 -1.966553 -0.226121
C -0.283709 -3.202828 -0.339204
H -0.312377 -4.278681 -0.450678
