32

Ir -0.267558 0.157317 0.041171
N 0.047624 -1.860328 0.036001
C 1.018178 -3.873762 -0.244520
C 1.167508 -2.518938 -0.456980
N -0.203931 -4.027935 0.379377
C -0.766197 -2.798356 0.539384
H -0.619627 -4.907938 0.683073
H 1.671260 -4.718886 -0.480194
H 1.999558 -1.972898 -0.909514
H -1.741133 -2.609932 0.998574
N -0.424070 2.331688 0.074441
C 0.269396 2.830765 1.293939
C 0.247676 2.881647 -1.134835
C -1.823627 2.824871 0.097888
H 1.298042 2.542706 -1.154919
H 0.209415 3.995352 -1.121663
H -0.265366 2.500991 -2.036899
H -2.343935 2.424169 0.986252
H -2.351964 2.478049 -0.808499
H -1.837211 3.938178 0.128898
H 1.318187 2.486165 1.283360
H -0.231728 2.417707 2.188378
H 0.236608 3.944378 1.325004
C -2.087413 -0.115816 0.043021
N -3.281213 -0.361518 0.122186
C -4.465122 -0.472811 -0.666962
H -5.127999 0.405746 -0.505738
H -5.049489 -1.370455 -0.373630
H -4.244476 -0.542922 -1.755674
N 1.763093 0.407952 -0.001371
C 2.964789 0.407264 -0.057972
S 4.576261 0.403624 -0.148076
