29

Ir -0.176004 0.045384 0.016038
P -2.420865 -0.220826 -0.017646
C -2.978267 -1.378509 1.299938
C -2.973992 -1.059209 -1.561104
C -3.518034 1.246786 0.135155
H -2.313036 -2.260777 1.218801
H -4.040770 -1.671679 1.177962
H -2.823865 -0.910282 2.291014
H -2.354159 -1.972279 -1.656264
H -2.770703 -0.402806 -2.428830
H -4.050581 -1.324211 -1.527072
H -3.334637 1.732451 1.113251
H -4.586203 0.960972 0.056769
H -3.262040 1.972541 -0.660948
N 1.957673 -0.050534 0.000577
C 4.755956 -0.318046 -0.024234
C 3.925380 -1.443166 0.085878
C 2.537336 -1.275854 0.093944
C 2.758114 1.039796 -0.110736
C 4.152828 0.944743 -0.126073
H 5.851617 -0.422218 -0.032591
H 4.343583 -2.457333 0.165199
H 1.815891 -2.108621 0.161115
H 2.244264 2.009256 -0.190068
H 4.753365 1.861349 -0.219246
C -0.250094 1.859123 0.064483
N -0.292518 3.090831 -0.015093
H -0.337637 3.712391 0.798494
F -0.153473 -1.986336 -0.031082
