32

Ir 0.036100 0.116062 0.015134
As 2.479914 0.059577 0.039737
C 3.430437 1.775187 0.095799
C 3.303148 -0.836577 -1.491633
C 3.247269 -0.906755 1.556964
H 3.173903 2.354662 -0.811763
H 4.525556 1.617772 0.141675
H 3.092502 2.340462 0.985211
H 3.060354 -0.270645 -2.410762
H 2.849262 -1.843752 -1.557206
H 4.400901 -0.906278 -1.362258
H 2.966662 -0.385274 2.491442
H 4.349452 -0.968397 1.466891
H 2.794787 -1.916690 1.556865
P -2.224936 0.023106 0.022300
C -5.364950 -0.081703 0.041722
C -4.648645 -1.285124 -0.101764
C -3.252236 -1.371527 -0.125432
C -3.343617 1.345538 0.183498
C -4.732735 1.167537 0.178062
H -6.464883 -0.119816 0.049057
H -5.222825 -2.222028 -0.201931
H -2.743707 -2.342220 -0.237043
H -2.917318 2.354231 0.300723
H -5.368844 2.062216 0.289306
C 0.019538 1.968125 0.067798
N 0.028724 3.172337 0.168567
C 0.073198 4.465089 -0.414286
H 1.091053 4.901307 -0.318041
H -0.627904 5.153258 0.102573
H -0.193520 4.441764 -1.494059
Br 0.211492 -2.432717 -0.083604
