36

Ir -0.040981 0.110974 -0.114111
C -2.096070 -0.025573 0.009942
C -4.297094 0.436987 0.393811
C -4.215358 -0.860856 -0.040996
H -5.160562 1.040617 0.688975
H -4.994682 -1.613337 -0.195440
C -2.330721 -2.391467 -0.735766
H -1.773924 -2.234944 -1.680056
H -1.627143 -2.783272 0.024771
H -3.162893 -3.100124 -0.903306
C -2.630211 2.275949 0.813099
H -1.545299 2.272835 1.031366
H -2.831039 2.996082 -0.006498
H -3.196212 2.575919 1.716278
N -2.998445 0.925167 0.420816
N -2.873236 -1.120462 -0.271505
C 2.017578 0.039670 -0.061136
C 4.261758 0.565108 0.391540
C 4.165860 -0.898357 -0.071501
H 4.760578 1.218822 -0.362823
H 4.339324 -1.616200 0.764509
C 2.244144 -2.220450 -1.055628
H 2.171351 -3.002953 -0.268443
H 1.222161 -2.014406 -1.429644
H 2.885212 -2.585213 -1.885613
C 2.459847 2.222011 1.045978
H 2.835462 3.051193 0.403709
H 1.352797 2.250879 1.070151
H 2.853407 2.367960 2.074761
N 2.850779 0.933285 0.528652
N 2.775863 -0.985073 -0.525522
H 4.875859 -1.148309 -0.886943
H 4.804886 0.684849 1.351941
C -0.095712 1.425213 -1.370048
O -0.133775 2.299680 -2.159667
Cl 0.072213 -1.587218 1.621960
