31

Ir 0.104525 -0.141132 -0.033416
N 2.149216 -0.178181 -0.038155
C 4.393870 -0.919754 0.126930
O 4.292124 0.423922 -0.438726
C 2.980127 0.681898 -0.542462
C 2.962381 -1.250362 0.586999
H 2.823056 -1.195838 1.686203
H 2.582578 -2.233903 0.250446
H 5.143541 -0.890901 0.940767
H 4.759803 -1.591486 -0.678004
H 2.689117 1.619248 -1.035886
N -1.946236 -0.192636 -0.033590
C -4.776533 -0.291230 -0.043847
C -4.018681 -1.249889 0.644516
C -2.623639 -1.175725 0.629476
C -2.687830 0.735459 -0.705804
C -4.083711 0.716906 -0.731708
H -5.876132 -0.328745 -0.046243
H -4.498857 -2.068319 1.200513
H -1.994115 -1.920133 1.134997
H -2.115098 1.510493 -1.232356
H -4.616018 1.496271 -1.296358
C 0.118460 1.758174 0.046928
N 0.151494 2.968511 0.040668
C 0.134039 4.216391 0.715442
H -0.769340 4.800055 0.436494
H 1.016326 4.829192 0.432589
H 0.137591 4.090640 1.820993
C 0.116233 -2.183016 -0.099707
C 0.111872 -3.425347 -0.145628
H 0.091235 -4.505689 -0.200569
