32

Ir -0.026819 0.057578 0.006601
C 1.971295 -0.009689 0.019546
C 4.170738 0.303047 -0.499919
C 4.111828 -0.609480 0.519253
H 5.026124 0.724569 -1.036150
H 4.906445 -1.147047 1.045189
C 2.263810 -1.715402 1.825879
H 1.319936 -1.308911 2.235176
H 2.041235 -2.697093 1.362701
H 3.011887 -1.828079 2.633460
C 2.473362 1.595385 -1.832928
H 1.397006 1.441242 -2.040567
H 2.636176 2.642432 -1.502972
H 3.061553 1.406128 -2.751956
N 2.859873 0.655216 -0.794687
N 2.770234 -0.783349 0.827011
N -2.174013 -0.019903 -0.021288
C -4.997795 -0.140324 -0.044727
C -4.321823 0.815279 0.728186
C -2.924415 0.845019 0.713088
C -2.833793 -0.948737 -0.765423
C -4.229236 -1.034839 -0.802548
H -6.097227 -0.187911 -0.053287
H -4.866761 1.542641 1.347463
H -2.366317 1.586226 1.302271
H -2.198447 -1.652105 -1.322824
H -4.698381 -1.810787 -1.424692
C -0.014103 1.885603 0.441618
N -0.001634 3.045638 0.823738
H 0.004434 3.930050 0.314212
C 0.024252 -1.940017 -0.491136
N 0.077348 -3.090451 -0.760718
