27

Ir -0.170757 0.072151 -0.015328
N 1.874330 -0.013536 -0.011063
C 3.989297 -0.741753 -0.268084
C 2.662108 -1.066367 -0.458151
N 3.994720 0.519713 0.295717
C 2.706416 0.933664 0.442503
H 4.817695 1.056633 0.567402
H 4.908375 -1.295260 -0.480937
H 2.197907 -1.978407 -0.845185
H 2.401332 1.904534 0.845106
N -2.354856 0.019576 0.015887
C -2.837643 -0.791859 -1.135846
C -2.794162 -0.618976 1.288174
C -2.974591 1.365508 -0.068030
H -2.342951 -1.625435 1.354681
H -3.906257 -0.688466 1.316318
H -2.437069 -0.008935 2.138166
H -2.674347 1.852668 -1.013083
H -2.628304 1.989933 0.774813
H -4.084430 1.277100 -0.035350
H -2.385161 -1.798202 -1.075233
H -2.512196 -0.309536 -2.075967
H -3.949721 -0.862124 -1.114222
C -0.082763 1.878295 -0.132219
N 0.058819 3.106416 -0.089682
H 0.074874 3.699679 -0.926067
Cl -0.197326 -2.349769 0.133161
