31

Ir 0.000029 0.097053 0.022449
As 2.393944 -0.151601 -0.011413
C 3.524423 1.414037 -0.329025
C 2.960047 -1.416093 -1.398066
C 3.222802 -0.932776 1.591711
H 3.231520 1.866068 -1.295597
H 4.595873 1.135242 -0.348472
H 3.338220 2.153108 0.473431
H 2.823288 -0.938761 -2.386902
H 2.269035 -2.278666 -1.332103
H 4.012542 -1.734373 -1.266516
H 3.067675 -0.243990 2.443694
H 4.305586 -1.108375 1.435657
H 2.718174 -1.891493 1.819800
As -2.410337 -0.115194 -0.014872
C -3.107662 -0.967154 1.602785
C -2.983653 -1.372225 -1.397059
C -3.574390 1.440830 -0.255832
H -2.516151 -1.894005 1.728198
H -4.186199 -1.200118 1.504941
H -2.934403 -0.303525 2.470801
H -2.300401 -2.237517 -1.292626
H -2.842138 -0.909834 -2.391975
H -4.040216 -1.673662 -1.258698
H -3.372457 2.166048 0.555552
H -4.641405 1.144832 -0.240161
H -3.330611 1.918877 -1.223752
C 0.057855 1.926669 0.015600
O 0.106396 3.104893 0.027393
O -0.201958 -1.953451 0.006554
H 0.508770 -2.409949 0.491296
