49

Ir -1.162042 -0.004272 -0.010837
N -3.283060 0.041760 0.045535
C -3.955864 1.043770 0.667368
C -5.357661 1.049278 0.703663
N -6.108460 0.088017 0.145521
C -5.430801 -0.895755 -0.468892
C -4.032859 -0.932609 -0.530262
H -3.346377 1.841208 1.116542
H -5.883137 1.874434 1.214865
H -6.018128 -1.701028 -0.943100
H -3.491037 -1.742087 -1.039448
P 1.127367 -0.015805 0.022857
C 1.123285 -0.727677 2.763023
C 1.895766 -0.228453 1.695473
C 2.014402 1.482701 -0.601819
C 2.039650 2.640812 0.208086
C 2.664128 3.809311 -0.251193
C 3.261837 3.837747 -1.522646
C 3.232995 2.692038 -2.332327
C 2.612276 1.517370 -1.876257
C 1.839218 -1.383645 -1.004392
C 1.149685 -1.722881 -2.189137
C 1.650547 -2.721786 -3.037363
C 2.832532 -3.402700 -2.703071
C 3.512076 -3.080539 -1.517470
C 3.021868 -2.073326 -0.671234
C 3.254214 0.092349 1.917675
C 3.829944 -0.103218 3.181972
C 3.056818 -0.614224 4.237798
C 1.703955 -0.922223 4.026182
H 0.056572 -0.942388 2.597164
H 1.566047 2.625658 1.201762
H 2.678783 4.705633 0.387544
H 3.749628 4.756577 -1.882541
H 3.698674 2.707925 -3.329638
H 2.596013 0.623073 -2.516723
H 0.205644 -1.203396 -2.423527
H 1.106495 -2.976984 -3.959731
H 3.219937 -4.193969 -3.363308
H 4.431189 -3.620975 -1.243297
H 3.558627 -1.837736 0.259238
H 3.863027 0.510981 1.101517
H 4.888741 0.151254 3.344017
H 3.509279 -0.763326 5.230355
H 1.089273 -1.310687 4.852606
C -1.131504 -1.806191 0.420261
O -1.137931 -2.960042 0.640151
S -1.415599 2.240696 -0.771474
H -0.137844 2.681698 -0.920370
