33

Ir 0.337367 -0.404321 -0.064296
N 2.407638 0.059814 0.012212
C 4.458362 1.249540 0.196347
O 4.654897 -0.180828 -0.029441
C 3.433231 -0.721179 -0.101934
C 2.923953 1.434795 0.200744
H 2.545787 2.079143 -0.616873
H 2.522520 1.849248 1.145480
H 4.975179 1.792569 -0.619542
H 4.942456 1.505833 1.160013
H 3.381888 -1.808488 -0.259291
C -1.653697 -0.617274 -0.087204
C -3.892844 -0.115446 -0.549648
C -3.838876 -1.219495 0.517590
H -4.211572 0.866844 -0.129775
H -4.176967 -2.208377 0.126347
C -1.916365 -2.093002 1.912442
H -2.048434 -3.175823 1.687041
H -0.838533 -1.880350 2.046570
H -2.453455 -1.862437 2.856682
C -2.115330 0.842369 -2.066243
H -2.305738 1.907911 -1.808429
H -1.034273 0.710290 -2.260050
H -2.690450 0.580455 -2.979404
N -2.494659 -0.035602 -0.979768
N -2.411569 -1.260984 0.841204
H -4.445433 -0.986684 1.416777
H -4.561980 -0.359349 -1.399985
C 0.600810 -2.191150 -0.368038
O 0.752756 -3.343703 -0.551147
N -0.031454 1.581312 0.287730
C -0.685747 2.585846 0.386231
S -1.563136 3.936023 0.491162
