61

Ir -0.947195 -0.321086 0.067106
P 1.359367 0.162315 0.000415
C 1.792579 -1.715417 -2.023310
C 2.331735 -1.175422 -0.834314
C 2.182300 0.332493 1.647130
C 1.619399 -0.336909 2.753713
C 2.235862 -0.259226 4.012111
C 3.410679 0.492572 4.178022
C 3.970031 1.168484 3.080805
C 3.360384 1.089999 1.818872
C 1.859498 1.702425 -0.878879
C 1.367809 2.926182 -0.373904
C 1.635270 4.125945 -1.046137
C 2.407002 4.118688 -2.220273
C 2.912172 2.907173 -2.717172
C 2.637120 1.699720 -2.053731
C 3.533615 -1.701509 -0.322428
C 4.187025 -2.751189 -0.990929
C 3.652793 -3.276041 -2.178481
C 2.455003 -2.752352 -2.696228
H 0.834525 -1.321202 -2.400350
H 0.686266 -0.905859 2.615160
H 1.789179 -0.782588 4.871641
H 3.888576 0.559087 5.167752
H 4.886294 1.765603 3.208216
H 3.795948 1.627312 0.962135
H 0.757168 2.939948 0.540287
H 1.214187 5.065487 -0.658259
H 2.610802 5.060915 -2.752010
H 3.522200 2.896587 -3.633781
H 3.028582 0.753431 -2.456191
H 3.958447 -1.296964 0.608569
H 5.122370 -3.160158 -0.578336
H 4.168302 -4.096964 -2.700611
H 2.029006 -3.161387 -3.625561
C -2.961099 -0.667482 0.126897
C -5.097490 -1.493326 -0.385227
C -5.225697 -0.350759 0.635469
H -5.740340 -1.354715 -1.279017
H -5.832763 -0.622163 1.523651
C -3.497956 0.893559 1.998775
H -4.043217 0.677948 2.941683
H -2.407864 0.855450 2.183661
H -3.759619 1.917845 1.651811
C -3.128205 -2.277974 -1.769600
H -3.685929 -2.141988 -2.720542
H -2.069865 -1.989770 -1.920888
H -3.176779 -3.354399 -1.484741
N -3.677282 -1.429073 -0.739893
N -3.827768 -0.104644 1.002751
H -5.668028 0.569967 0.188990
H -5.341484 -2.488731 0.055993
C -0.509642 -2.104295 0.384614
N -0.195494 -3.247065 0.629155
C 0.372928 -4.466304 0.171664
H -0.176570 -4.865005 -0.710400
H 0.346843 -5.239051 0.967126
H 1.432527 -4.314340 -0.129837
N -1.446505 1.613639 -0.334121
C -1.885086 2.724559 -0.441402
S -2.456506 4.233938 -0.548194
