32

Ir 0.000407 0.134530 -0.018182
As 2.406062 -0.068113 0.013672
C 3.509132 1.552616 0.012499
C 3.155508 -1.105091 -1.468724
C 3.087320 -1.054784 1.561668
H 3.312090 2.116828 -0.919039
H 4.584911 1.297646 0.075843
H 3.217046 2.181773 0.874743
H 2.938746 -0.584105 -2.420361
H 2.643961 -2.086755 -1.471888
H 4.248438 -1.236911 -1.346106
H 2.826335 -0.503258 2.484491
H 4.184889 -1.187774 1.493316
H 2.578397 -2.037674 1.573239
As -2.405452 -0.068505 0.013689
C -3.086525 -1.054768 1.562000
C -3.154824 -1.105923 -1.468408
C -3.508619 1.552160 0.012085
H -2.577755 -2.037735 1.573538
H -4.184130 -1.187544 1.493873
H -2.825231 -0.503127 2.484665
H -2.642612 -2.087238 -1.471734
H -2.938939 -0.584756 -2.420145
H -4.247602 -1.238456 -1.345204
H -3.216841 2.181494 0.874301
H -4.584365 1.297005 0.075187
H -3.311447 2.116302 -0.919462
C -0.001302 2.018526 -0.034208
N -0.004378 3.234205 0.041826
H -0.005405 3.985993 -0.646365
C -0.000952 -1.917228 -0.056708
N -0.002816 -3.100661 -0.079972
