29

Ir 0.237991 0.155564 -0.038969
As -2.145590 0.072432 0.009709
C -2.890407 -0.264269 1.787257
C -2.999392 -1.323329 -1.066460
C -3.107168 1.683966 -0.556914
H -2.423438 -1.203493 2.137835
H -3.993082 -0.360945 1.743725
H -2.602911 0.566182 2.459317
H -2.603732 -2.295148 -0.716532
H -2.729683 -1.176041 -2.129214
H -4.099449 -1.285755 -0.943160
H -2.743022 2.544504 0.035636
H -4.197533 1.556627 -0.412173
H -2.891229 1.873338 -1.625817
N 2.350202 0.111152 0.044131
C 4.493973 0.671624 0.440100
C 3.184304 1.089947 0.560391
N 4.432047 -0.573081 -0.159101
C 3.129563 -0.884177 -0.390328
H 5.225501 -1.170321 -0.392242
H 5.439105 1.142554 0.725747
H 2.782794 2.019487 0.975428
H 2.731953 -1.812420 -0.827365
C 0.222361 1.996459 -0.185662
N 0.199225 3.220769 -0.192483
H 0.306021 3.860139 -0.982719
N 0.177817 -1.988475 0.045202
O 0.895561 -2.696943 -0.689506
O -0.650133 -2.533214 0.806659
