35

Ir -0.207605 -0.224062 0.031833
C 1.774900 -0.455334 0.040632
C 3.892618 -1.067349 0.633615
C 3.993614 -0.200382 -0.421545
H 4.664198 -1.583133 1.213026
H 4.871107 0.193685 -0.942818
C 2.381888 1.078899 -1.857141
H 1.322475 0.927907 -2.134257
H 2.515649 2.132162 -1.535792
H 3.033805 0.864234 -2.726290
C 1.997742 -2.038697 1.970756
H 1.007156 -1.633455 2.250428
H 1.865635 -3.087205 1.634289
H 2.678219 -2.012300 2.843369
N 2.539336 -1.209285 0.905440
N 2.700675 0.157182 -0.774634
N -2.289092 0.174996 0.074345
C -4.388765 1.293509 0.089280
O -4.524490 -0.159044 0.171898
C -3.279549 -0.653789 0.150061
C -2.863572 1.539790 0.046787
H -2.475849 2.113033 0.911124
H -2.518471 2.064732 -0.865033
H -4.889246 1.729177 0.976806
H -4.922598 1.628955 -0.822611
H -3.177337 -1.747558 0.196857
C -0.465091 -2.042206 -0.192661
N -0.644879 -3.243360 -0.278808
C -0.733299 -4.341183 -1.183756
H -1.628403 -4.960586 -0.963583
H 0.151223 -5.006331 -1.079055
H -0.790869 -4.009325 -2.244351
N 0.087464 1.792990 0.204264
C 0.497881 2.921374 0.179893
S 1.054379 4.437231 0.113237
