27

Ir 0.087683 -0.488869 -0.026346
N 2.197514 -0.460572 -0.043973
C 2.894225 0.356144 -0.874525
C 4.296286 0.356207 -0.868705
N 5.024619 -0.424350 -0.056399
C 4.324304 -1.223749 0.764002
C 2.924291 -1.257140 0.780286
H 2.307998 1.013840 -1.531618
H 4.840941 1.024087 -1.558202
H 4.892420 -1.875849 1.449718
H 2.363545 -1.920019 1.454232
As -2.308020 -0.367681 -0.039745
C -3.258952 -2.075947 -0.164611
C -3.088766 0.649288 -1.516076
C -3.126518 0.444772 1.539972
H -2.955257 -2.590851 -1.095709
H -4.353303 -1.907827 -0.166824
H -2.977461 -2.710561 0.696954
H -2.788213 0.175662 -2.469665
H -2.677195 1.675394 -1.476230
H -4.192738 0.665880 -1.428557
H -2.846267 -0.150148 2.429629
H -4.228284 0.472669 1.430087
H -2.717677 1.467266 1.645790
C 0.020195 -2.311768 -0.081823
O -0.042002 -3.485207 -0.096895
I 0.087081 2.243134 0.150326
