30

Ir 0.016112 0.032514 -0.063216
N -2.023138 0.124745 -0.068430
C -4.318581 -0.449152 0.149034
O -4.126406 0.936122 -0.267424
C -2.802458 1.135153 -0.313095
C -2.899204 -1.052608 0.160725
H -2.720011 -1.791135 -0.644820
H -2.628268 -1.538380 1.116468
H -5.007199 -0.929094 -0.573075
H -4.800355 -0.434239 1.148524
H -2.454988 2.147800 -0.559095
N 2.044168 -0.187712 -0.073170
C 4.380426 0.163172 0.169904
O 4.061374 -1.177763 -0.300487
C 2.725088 -1.256029 -0.363059
C 3.017492 0.887021 0.222057
H 2.908862 1.687707 -0.537654
H 2.790025 1.328697 1.211497
H 5.103329 0.610978 -0.539712
H 4.866156 0.065388 1.162529
H 2.275249 -2.216413 -0.647260
C 0.136791 1.870386 -0.111540
N 0.192242 3.086528 -0.199882
C 0.326274 4.276946 0.575806
H -0.432223 5.029489 0.272934
H 1.321559 4.743568 0.407663
H 0.212699 4.088636 1.666983
N -0.113238 -2.010326 0.055122
C -0.327547 -3.182308 0.252733
O -0.535641 -4.351447 0.434390
