54

Ir -1.062565 -0.258906 0.036724
N -3.159699 -0.550747 0.071118
C -3.984652 0.363683 0.643449
C -5.371173 0.160107 0.674286
N -5.965057 -0.923542 0.150742
C -5.139559 -1.818454 -0.416248
C -3.750840 -1.649991 -0.463051
H -3.512060 1.263189 1.060893
H -6.018931 0.917645 1.148289
H -5.594180 -2.720195 -0.862297
H -3.088802 -2.394385 -0.926711
P 1.202032 0.068171 0.027177
C 1.390238 -0.789571 2.706880
C 2.016410 -0.050384 1.682414
C 1.807540 1.681871 -0.623000
C 1.484512 2.847959 0.103376
C 1.862235 4.106805 -0.381298
C 2.577914 4.212570 -1.585573
C 2.912934 3.054920 -2.304040
C 2.526727 1.790545 -1.829553
C 2.089696 -1.193931 -1.000260
C 1.515417 -1.538946 -2.244033
C 2.131762 -2.492315 -3.068459
C 3.317413 -3.123280 -2.652392
C 3.884793 -2.792234 -1.411842
C 3.277748 -1.828305 -0.588930
C 3.264204 0.562002 1.929455
C 3.879824 0.425118 3.183158
C 3.256241 -0.319897 4.197872
C 2.011853 -0.924870 3.957878
H 0.404035 -1.240560 2.515400
H 0.917534 2.774160 1.043020
H 1.573292 5.008820 0.177691
H 2.868593 5.202904 -1.968284
H 3.475406 3.132145 -3.247282
H 2.787344 0.889377 -2.403906
H 0.568760 -1.062314 -2.547086
H 1.679611 -2.748675 -4.039043
H 3.797223 -3.876997 -3.295691
H 4.809606 -3.287497 -1.077840
H 3.728609 -1.577393 0.382791
H 3.750243 1.156498 1.140419
H 4.850802 0.909300 3.369767
H 3.738615 -0.421011 5.182390
H 1.514048 -1.499206 4.754289
C -0.698194 -2.088310 0.132175
N -0.435024 -3.261617 0.226368
C 0.149811 -4.468720 -0.230885
H 0.809929 -4.902170 0.549931
H 0.760193 -4.296084 -1.144576
H -0.631071 -5.224368 -0.461200
N -1.455678 1.723385 -0.133510
C -1.657002 2.903354 -0.243159
S -1.926793 4.488705 -0.362418
