44

Ir 0.105611 0.069240 0.034594
P -2.246564 -0.049867 -0.006212
C -3.011436 0.492928 1.602586
C -3.033192 -1.717795 -0.279310
C -3.077954 -2.196270 -1.733232
C -3.116712 1.027101 -1.253155
C -2.744459 2.509492 -1.186120
C -2.529140 -0.333794 2.797190
H -2.719814 1.556992 1.728393
H -4.118422 0.464178 1.499356
H -2.426490 -2.422581 0.325765
H -4.052968 -1.678792 0.163485
H -2.840070 0.609975 -2.243851
H -4.212617 0.874783 -1.133904
H -2.058152 -2.216256 -2.164749
H -3.483896 -3.227794 -1.781533
H -3.727476 -1.558438 -2.366322
H -3.020722 2.969049 -0.215698
H -1.652682 2.650203 -1.311128
H -3.263359 3.079536 -1.983915
H -2.839872 -1.395538 2.716437
H -1.420833 -0.316070 2.853089
H -2.937487 0.061609 3.750075
C 2.155737 0.066345 0.020829
C 4.350171 -0.663528 0.382581
C 4.371911 0.523250 -0.595782
H 5.053292 -0.544917 1.232866
H 4.927536 0.307625 -1.531878
C 2.490104 1.707651 -1.817256
H 2.893497 1.483392 -2.827725
H 1.383272 1.663014 -1.843384
H 2.807129 2.735154 -1.527962
C 2.485710 -1.647193 1.785879
H 3.116118 -1.624689 2.699702
H 1.437449 -1.399265 2.042378
H 2.498948 -2.670435 1.350656
N 2.956388 -0.663263 0.835999
N 2.945395 0.727472 -0.859369
H 4.815840 1.441354 -0.143075
H 4.585208 -1.629707 -0.122526
C 0.031346 1.733499 0.786566
N -0.010962 2.891277 1.204077
H -0.010964 3.162369 2.191387
Cl 0.315629 -2.156279 -0.897417
