33

Ir -0.310096 -0.099347 -0.000137
P -2.627836 -0.377499 -0.000141
C -3.247784 -1.335419 1.443500
C -3.247540 -1.336036 -1.443462
C -3.672505 1.142145 -0.000565
H -2.722169 -2.310381 1.447762
H -4.344356 -1.489636 1.380913
H -2.994945 -0.795714 2.376309
H -2.721896 -2.310984 -1.447262
H -2.994612 -0.796701 -2.376461
H -4.344112 -1.490273 -1.380933
H -3.434651 1.744862 0.897538
H -4.751886 0.888474 -0.000776
H -3.434218 1.744673 -0.898676
P 1.961447 -0.134950 -0.000154
C 5.102090 -0.259139 0.000028
C 4.377887 -1.466733 0.001134
C 2.981046 -1.544316 0.001177
C 3.091281 1.188849 -0.001382
C 4.479518 1.002280 -0.001184
H 6.201836 -0.303730 0.000089
H 4.945657 -2.412682 0.002018
H 2.466902 -2.518954 0.002033
H 2.674026 2.208281 -0.002442
H 5.122851 1.898735 -0.002053
C -0.399955 1.820677 -0.001081
N -0.473861 3.013070 -0.003397
C -0.544531 4.416184 0.003733
H -1.601744 4.758246 0.001544
H -0.045178 4.846083 -0.891503
H -0.051610 4.836761 0.906973
C -0.300967 -2.134503 0.000676
N -0.355842 -3.316575 0.001178
