33

Ir -0.174537 0.095700 -0.054140
P -2.509957 -0.012989 0.019845
C -3.173136 -0.272884 1.720418
C -3.220286 -1.435247 -0.914204
C -3.470999 1.434301 -0.601464
H -2.660301 -1.165542 2.129833
H -4.272184 -0.422496 1.718581
H -2.912619 0.600986 2.348513
H -2.705574 -2.345016 -0.546832
H -2.991777 -1.312797 -1.990805
H -4.316370 -1.522412 -0.768792
H -3.155383 2.341369 -0.050068
H -4.562863 1.282982 -0.481849
H -3.234934 1.589792 -1.672374
C 1.873815 0.002683 -0.019094
C 4.018386 -0.657258 -0.398062
C 4.060944 0.391627 0.484127
H 4.821625 -1.264112 -0.826932
H 4.907838 0.883043 0.972330
C 2.335636 1.873200 1.569665
H 2.424268 2.845719 1.044627
H 1.273851 1.712717 1.836051
H 2.959990 1.882617 2.483703
C 2.173705 -1.915087 -1.582583
H 1.550568 -2.622303 -1.001244
H 1.536007 -1.455994 -2.362315
H 3.027569 -2.437767 -2.051960
N 2.681263 -0.875773 -0.694076
N 2.745936 0.776796 0.704246
C -0.158690 1.788012 -0.735380
N -0.145930 2.974484 -1.064533
H -0.156841 3.317554 -2.029079
Cl -0.238193 -2.145122 0.903512
