25

Ir 0.000600 0.160309 0.007020
N -2.060521 0.118701 -0.037755
C -4.209555 0.628042 -0.482972
C -2.900352 1.016453 -0.681951
N -4.145139 -0.514952 0.290863
C -2.840437 -0.797018 0.550280
H -4.936756 -1.068583 0.617229
H -5.155817 1.058509 -0.823086
H -2.500717 1.871247 -1.235223
H -2.445687 -1.655332 1.111753
N 2.062763 0.116965 0.020378
C 4.225909 0.633592 0.386379
C 2.923390 1.019208 0.628646
N 4.136753 -0.514194 -0.377443
C 2.824550 -0.800487 -0.589182
H 4.917489 -1.066863 -0.730518
H 5.182331 1.070440 0.687600
H 2.544704 1.879443 1.186986
H 2.412521 -1.666607 -1.125762
C -0.005163 2.001711 0.032538
N 0.000861 3.226298 -0.037851
H -0.136255 3.893827 0.725179
N 0.000727 -1.991165 0.036801
O 0.619007 -2.635394 -0.836836
O -0.619781 -2.609659 0.926574
