44

Ir 0.002723 0.004323 -0.021812
C -2.051074 -0.110316 -0.045867
C -4.298959 0.113829 0.620249
C -4.245484 -0.573773 -0.753647
H -4.632046 -0.578933 1.428961
H -4.633249 0.080228 -1.570524
C -2.320463 -1.463758 -2.122984
H -2.496454 -0.842979 -3.031543
H -1.238063 -1.662436 -2.007222
H -2.840421 -2.435742 -2.256070
C -2.496903 1.135708 2.059763
H -2.856112 0.561216 2.943846
H -1.388910 1.160566 2.077727
H -2.900845 2.170083 2.127908
N -2.901003 0.495091 0.830735
N -2.810671 -0.805701 -0.931674
H -4.815645 -1.525738 -0.790158
H -4.970807 0.998003 0.640929
C 2.061080 -0.050880 0.000383
C 4.278674 -0.267690 0.754018
C 4.287532 -0.018106 -0.763200
H 4.682449 0.598945 1.329631
H 4.612313 -0.916659 -1.339147
C 2.434957 0.518534 -2.391133
H 2.762708 -0.299856 -3.071825
H 1.327378 0.553438 -2.380768
H 2.838481 1.480020 -2.776759
C 2.400260 -0.721533 2.378848
H 2.618145 0.128266 3.066313
H 1.312082 -0.920781 2.359317
H 2.912632 -1.626694 2.767786
N 2.851700 -0.439047 1.034492
N 2.878965 0.271506 -1.039130
H 4.943741 0.825860 -1.064246
H 4.859028 -1.165438 1.054087
C -0.026949 1.857732 -0.268728
N -0.048827 3.050497 -0.477087
C -0.130953 4.371179 0.034977
H -0.935483 4.942760 -0.475564
H 0.818191 4.922393 -0.140540
H -0.338605 4.385273 1.128906
N 0.035708 -2.093783 0.314870
O 0.227144 -2.861747 -0.647880
O -0.132338 -2.545777 1.462497
