38

Ir -0.039605 0.198882 -0.189135
C -2.101111 0.123165 -0.029063
C -4.232355 0.403006 0.723821
C -4.254245 -0.581348 -0.230928
H -5.037553 0.836033 1.325034
H -5.082464 -1.180396 -0.621574
C -2.506780 -1.733222 -1.636631
H -1.549562 -1.380439 -2.066472
H -2.315594 -2.690953 -1.115490
H -3.266536 -1.854818 -2.432577
C -2.429137 1.841000 1.743746
H -1.332992 1.912584 1.593647
H -2.905401 2.818354 1.526618
H -2.636655 1.553563 2.793673
N -2.913036 0.818747 0.830430
N -2.951290 -0.730336 -0.679631
C 2.011308 0.036208 -0.108297
C 4.272895 0.520565 0.306132
C 4.118081 -0.982586 0.031881
H 4.801301 1.052559 -0.520425
H 4.236568 -1.593336 0.957548
C 2.175177 -2.344018 -0.820636
H 2.123837 -3.038583 0.047575
H 1.145221 -2.181767 -1.190751
H 2.790156 -2.806943 -1.620776
C 2.542441 2.304981 0.777649
H 2.875807 3.052772 0.022215
H 1.442630 2.364085 0.885389
H 3.017878 2.551851 1.750722
N 2.877760 0.958008 0.384898
N 2.733734 -1.065947 -0.440675
H 4.829724 -1.367458 -0.727211
H 4.815341 0.739058 1.249161
C -0.015660 1.628891 -1.356146
O 0.012783 2.544269 -2.090623
N -0.041369 -1.467143 1.148722
O 0.717631 -1.469688 2.133727
O -0.771217 -2.448739 0.905860
