24

Ir -0.000720 0.051490 -0.015892
N 2.055795 0.045470 -0.023882
C 4.207522 0.636186 0.297133
C 2.896630 1.036366 0.460807
N 4.146649 -0.610848 -0.294297
C 2.838516 -0.939048 -0.482658
H 4.940159 -1.197203 -0.550558
H 5.154033 1.123447 0.548385
H 2.492365 1.960936 0.883210
H 2.474969 -1.879823 -0.911632
N -2.048438 -0.017882 -0.012404
C -4.177332 -0.623611 -0.441938
C -2.852325 -0.923596 -0.689963
N -4.163095 0.478089 0.391006
C -2.866292 0.819545 0.635461
H -4.978768 0.958630 0.769343
H -5.105191 -1.090432 -0.784826
H -2.409311 -1.716075 -1.300381
H -2.544176 1.664752 1.251194
C -0.050369 1.876253 -0.254598
N -0.111365 3.111886 -0.260594
H -0.134548 3.644433 -1.139627
S 0.137855 -2.319354 0.387236
H -1.174703 -2.663325 0.518561
