41

Ir 0.047234 0.180938 -0.010376
P -2.281536 -0.001088 0.020230
C -3.045849 -1.042795 1.360088
C -2.944367 -0.733571 -1.547854
C -2.602075 0.087212 -2.793615
C -3.217226 1.596586 0.190730
C -3.051125 2.303678 1.537981
C -2.594062 -2.502711 1.442726
H -2.820265 -0.516387 2.310990
H -4.146123 -0.969924 1.207157
H -2.460410 -1.730169 -1.608912
H -4.040423 -0.878849 -1.428045
H -2.854872 2.244853 -0.634049
H -4.286975 1.375516 -0.018010
H -1.505459 0.239134 -2.865402
H -2.937283 -0.438818 -3.710336
H -3.084565 1.086108 -2.788847
H -3.499107 1.723408 2.369396
H -1.982999 2.472151 1.780166
H -3.549966 3.293770 1.520045
H -2.731881 -3.042634 0.485456
H -1.524885 -2.586280 1.716167
H -3.182460 -3.035041 2.217533
As 2.499321 0.112954 0.018886
C 3.336099 -1.270734 -1.083846
C 3.223552 -0.281423 1.791652
C 3.463486 1.734466 -0.508380
H 2.939408 -2.246747 -0.745445
H 4.437306 -1.241735 -0.969852
H 3.057908 -1.110057 -2.142365
H 2.747631 -1.227139 2.112877
H 2.935657 0.529591 2.486828
H 4.325742 -0.384929 1.755932
H 3.228178 1.963150 -1.565354
H 4.555785 1.598180 -0.388133
H 3.117949 2.577631 0.119785
C 0.021085 2.026274 -0.046351
O 0.026219 3.198017 -0.113428
N 0.191170 -1.939737 -0.091782
O -0.342955 -2.583977 -1.007976
O 0.878645 -2.521776 0.776199
