41

Ir -0.214605 -0.249721 -0.027007
P 1.964724 0.379561 0.066770
C 2.867710 -0.320862 1.534976
C 2.281841 2.207374 0.206442
C 2.109818 2.999586 -1.093522
C 3.066733 -0.100562 -1.358017
C 3.118666 -1.593157 -1.683733
C 2.235690 0.068335 2.873540
H 2.843529 -1.423538 1.405173
H 3.931620 -0.002757 1.471710
H 1.571224 2.572890 0.975096
H 3.307500 2.331008 0.618207
H 2.682526 0.465879 -2.231130
H 4.080338 0.300065 -1.133922
H 1.148213 2.760446 -1.587941
H 2.099762 4.086907 -0.880600
H 2.931045 2.802693 -1.811883
H 3.477631 -2.197626 -0.825353
H 2.114852 -1.967431 -1.966063
H 3.806304 -1.784513 -2.532838
H 2.279392 1.162681 3.048249
H 1.167901 -0.231055 2.897611
H 2.758913 -0.425749 3.717654
N -2.294671 -0.770841 -0.044637
C -4.533660 -0.656501 -0.245516
C -3.355562 0.046240 -0.397781
N -4.167248 -1.910993 0.205223
C -2.811780 -1.947627 0.316878
H -4.799724 -2.679739 0.427944
H -5.576797 -0.373871 -0.414930
H -3.190947 1.078812 -0.719695
H -2.236457 -2.817044 0.652094
C 0.290129 -2.026778 0.073719
N 0.567890 -3.199246 0.260406
C 1.004412 -4.393243 -0.385214
H 0.598501 -5.288980 0.128917
H 2.113280 -4.473043 -0.352797
H 0.692389 -4.432218 -1.452916
N -0.836296 1.687146 -0.073512
C -1.136447 2.849417 -0.027277
S -1.528767 4.414717 0.020378
