31

Ir 0.026931 0.020112 0.036475
C -1.961353 -0.138738 0.038323
C -4.193885 0.260222 0.300746
C -4.063103 -0.923953 -0.375688
H -5.085409 0.798896 0.635563
H -4.818960 -1.619469 -0.752759
C -2.131422 -2.288018 -1.246751
H -1.960520 -2.020816 -2.309409
H -1.164799 -2.542146 -0.765504
H -2.830715 -3.144026 -1.189702
C -2.602428 1.955135 1.259736
H -1.624208 1.834766 1.761666
H -2.530798 2.809542 0.557115
H -3.391201 2.156072 2.009593
N -2.909431 0.720369 0.552687
N -2.703874 -1.157423 -0.521130
N 2.178278 -0.039771 0.040381
C 4.991703 -0.231487 0.033455
C 4.347073 0.931154 -0.414727
C 2.950575 0.989150 -0.396160
C 2.802417 -1.166013 0.476795
C 4.194750 -1.293597 0.485404
H 6.089863 -0.306155 0.030691
H 4.915327 1.798920 -0.780152
H 2.415974 1.886113 -0.740064
H 2.102795 -1.951589 0.819986
H 4.643594 -2.229695 0.849357
C -0.056354 1.716814 -0.629928
O -0.141521 2.824092 -1.035306
O 0.154477 -1.884915 0.779762
H -0.560952 -2.058664 1.418584
