30

Ir -0.104535 -0.098259 0.001951
As 2.271104 0.051552 0.001402
C 3.296928 -1.607609 0.187217
C 3.017337 1.176168 1.417580
C 3.040552 0.849738 -1.610827
H 3.019664 -2.095015 1.141258
H 4.384359 -1.399231 0.172099
H 3.031865 -2.287801 -0.644460
H 2.762865 0.731038 2.397909
H 2.533684 2.167702 1.334376
H 4.116303 1.264011 1.310880
H 2.797838 0.207190 -2.478079
H 4.138287 0.957529 -1.509594
H 2.559580 1.836687 -1.747038
N -2.224060 0.011791 -0.004778
C -5.040497 0.175122 0.016819
C -4.252178 1.223868 0.510276
C -2.858368 1.112476 0.481020
C -2.991096 -1.003499 -0.484537
C -4.387668 -0.957356 -0.492355
H -6.139087 0.237781 0.027585
H -4.705248 2.138562 0.919316
H -2.200524 1.921633 0.829589
H -2.448556 -1.877786 -0.869794
H -4.949542 -1.811897 -0.896202
C -0.057080 -1.963995 0.179507
O 0.039196 -3.129581 0.279544
C 0.002304 1.930847 -0.206225
C 0.109997 3.162845 -0.323405
H 0.174737 4.236830 -0.437665
