37

Ir -0.164906 0.074135 0.011693
N -2.293560 0.057310 -0.048976
C -2.971810 -0.844732 -0.803947
C -4.373508 -0.839086 -0.840883
N -5.120378 0.038106 -0.153743
C -4.438243 0.923905 0.590929
C -3.040023 0.945765 0.655782
H -2.366248 -1.575628 -1.359142
H -4.902535 -1.582342 -1.462263
H -5.022109 1.657903 1.172918
H -2.495938 1.675520 1.271961
P 2.123399 -0.037939 -0.006820
C 3.036577 1.588677 0.033967
C 2.897112 -0.854606 -1.492606
C 2.565385 -2.328916 -1.720211
C 2.877679 -0.929505 1.441229
C 2.460808 -0.346521 2.793231
C 3.026567 2.392682 -1.269102
H 2.572422 2.172452 0.855523
H 4.079426 1.363643 0.347081
H 2.553912 -0.248516 -2.356648
H 3.995171 -0.697305 -1.403601
H 2.545710 -1.985185 1.365729
H 3.981244 -0.920798 1.303385
H 1.470686 -2.488668 -1.787418
H 3.027211 -2.685330 -2.663510
H 2.952208 -2.973412 -0.904058
H 2.794961 0.704074 2.914726
H 1.356962 -0.366390 2.895395
H 2.898853 -0.934092 3.625453
H 3.595552 1.885233 -2.073308
H 1.998428 2.572972 -1.638276
H 3.496146 3.384438 -1.109170
C -0.128069 1.909933 -0.147819
O -0.136684 3.085914 -0.182753
S -0.436491 -2.272321 0.451810
H 0.814763 -2.801554 0.415820
