45

Ir 0.429600 -0.180224 -0.018285
P -1.817013 -0.127476 0.034594
C -2.503453 0.868789 1.452555
C -2.733037 -1.739255 0.211833
C -2.794768 -2.604100 -1.049200
C -2.678308 0.629850 -1.439476
C -2.265332 2.057540 -1.796918
C -2.049400 0.356022 2.821251
H -2.143535 1.907067 1.294412
H -3.612108 0.884762 1.363499
H -2.201580 -2.283462 1.018669
H -3.753456 -1.493626 0.580450
H -2.458081 -0.051136 -2.287221
H -3.772337 0.562791 -1.246833
H -1.778108 -2.789183 -1.447685
H -3.244187 -3.590894 -0.814081
H -3.413972 -2.142204 -1.844846
H -2.461870 2.770002 -0.969410
H -1.183551 2.102457 -2.033301
H -2.826882 2.417283 -2.683578
H -2.428638 -0.665981 3.025892
H -0.941753 0.314554 2.866517
H -2.412421 1.016612 3.635377
N 2.712184 -0.313498 -0.069013
C 3.356642 1.015427 -0.129322
C 3.164338 -1.013689 1.156483
C 3.106627 -1.091553 -1.267679
H 2.849156 -0.433187 2.043726
H 4.275591 -1.119696 1.157172
H 2.687972 -2.010160 1.198936
H 2.743186 -0.571819 -2.174024
H 2.635406 -2.090023 -1.221754
H 4.217131 -1.192741 -1.317231
H 3.073732 1.610541 0.758050
H 3.017575 1.551519 -1.034977
H 4.466814 0.909968 -0.160896
C 0.452928 1.714416 0.096037
N 0.465698 2.907406 0.303754
C 0.444943 4.257454 -0.121777
H 1.462160 4.598951 -0.415447
H 0.094308 4.926285 0.692197
H -0.229007 4.399182 -0.996527
C 0.444741 -2.219086 0.009694
C 0.507950 -3.459594 0.077201
H 0.546047 -4.539159 0.134639
