36

Ir -0.214026 0.094601 -0.055544
P -2.539791 -0.096199 0.074590
C -3.158330 -0.389383 1.787101
C -3.239199 -1.530228 -0.850944
C -3.567917 1.322034 -0.507242
H -2.650540 -1.293407 2.176958
H -4.258207 -0.532078 1.805370
H -2.881283 0.471093 2.426405
H -2.729066 -2.443834 -0.486981
H -3.016811 -1.411145 -1.929148
H -4.334754 -1.619166 -0.702172
H -3.278721 2.232448 0.052987
H -4.650279 1.125422 -0.368358
H -3.360548 1.502038 -1.580212
C 1.834488 0.019942 -0.031688
C 4.002470 -0.809954 -0.352666
C 4.070079 0.430920 0.553115
H 4.211597 -1.752275 0.205927
H 4.543591 1.304326 0.045077
C 2.242487 1.753938 1.707336
H 2.571719 2.753130 1.341644
H 1.136625 1.737027 1.768042
H 2.669448 1.590463 2.719688
C 2.099915 -1.817378 -1.683417
H 2.094538 -2.814439 -1.190032
H 1.056031 -1.559497 -1.947666
H 2.719903 -1.865919 -2.603236
N 2.606228 -0.791302 -0.797810
N 2.653230 0.700141 0.809525
H 4.623252 0.252225 1.498442
H 4.702291 -0.764197 -1.212661
C -0.261650 1.833881 -0.775287
N -0.309552 2.996841 -1.140124
H -0.325964 3.425498 -2.065545
C -0.211028 -1.818363 0.704452
N -0.254739 -2.927313 1.113970
