41

Ir 0.055511 -0.095396 -0.039104
P -2.262298 -0.036237 0.038506
C -2.893551 1.075359 1.386501
C -3.101385 -1.657185 0.380951
C -3.039719 -2.673958 -0.762614
C -3.145989 0.593105 -1.473514
C -2.653359 1.946694 -1.988205
C -2.378138 0.687000 2.774577
H -2.539282 2.093801 1.121025
H -4.004961 1.085107 1.342760
H -2.572041 -2.064745 1.266379
H -4.148231 -1.430226 0.682780
H -2.997973 -0.185827 -2.249808
H -4.233714 0.614885 -1.239939
H -1.979465 -2.880401 -1.006853
H -3.521308 -3.624667 -0.453422
H -3.568540 -2.321470 -1.671841
H -2.769872 2.749901 -1.232380
H -1.578447 1.891678 -2.252777
H -3.219845 2.252727 -2.891506
H -2.750459 -0.308704 3.091076
H -1.269398 0.646385 2.772482
H -2.702046 1.423983 3.537574
As 2.483889 -0.130390 -0.021432
C 3.393418 -1.869849 0.108414
C 3.304113 0.870575 1.451516
C 3.386893 0.673436 -1.568354
H 3.048255 -2.391400 1.022083
H 4.491193 -1.731349 0.154303
H 3.137329 -2.483538 -0.777102
H 3.005288 0.400293 2.407495
H 2.893680 1.898548 1.422376
H 4.408224 0.892704 1.364532
H 3.089751 0.122818 -2.480913
H 4.488324 0.652873 -1.450512
H 3.036299 1.719594 -1.656955
C 0.142034 1.741650 -0.028896
N 0.242390 2.965493 0.131901
H 0.227956 3.619476 -0.659982
O -0.102863 -2.120387 0.044292
H 0.761349 -2.566816 0.019938
