32

Ir 0.005994 -0.039966 -0.022975
P 2.341191 -0.051773 0.008240
C 3.042980 -1.031926 -1.380967
C 2.981954 -0.929290 1.492543
C 3.246773 1.549700 -0.025982
H 2.499278 -1.997600 -1.360233
H 4.135936 -1.189666 -1.276636
H 2.821531 -0.522563 -2.338649
H 2.454467 -1.903729 1.510432
H 2.705827 -0.361385 2.401800
H 4.080792 -1.076176 1.453100
H 3.002594 2.080238 -0.966944
H 4.343439 1.401186 0.042218
H 2.898640 2.176676 0.817885
P -2.298352 -0.186217 0.010730
C -3.013385 -1.889434 0.068366
C -3.166628 0.573218 -1.430648
C -3.096616 0.653809 1.445437
H -2.696453 -2.450482 -0.833281
H -4.121186 -1.862742 0.106933
H -2.630993 -2.414927 0.965826
H -2.827111 0.075196 -2.359293
H -2.871187 1.639321 -1.484465
H -4.269868 0.495613 -1.341122
H -2.736997 0.182963 2.380676
H -4.203820 0.601767 1.396990
H -2.765478 1.711154 1.446880
C -0.152294 1.792599 -0.014017
N -0.288404 3.014989 0.115452
H -0.318401 3.652207 -0.689069
O 0.352140 -2.052524 -0.012684
H -0.460120 -2.586578 -0.023613
