25

Ir -0.086689 0.329598 -0.045603
N -2.136615 0.305043 -0.037672
C -4.374781 -0.379672 -0.370798
O -4.268450 0.775894 0.521696
C -2.961265 1.004848 0.676039
C -2.946857 -0.574409 -0.914325
H -2.817994 -0.237420 -1.963577
H -2.565462 -1.610961 -0.829415
H -5.133342 -0.144111 -1.141008
H -4.727895 -1.235650 0.240893
H -2.667139 1.784539 1.392676
N 1.969069 0.216282 -0.052379
C 4.781083 0.001309 -0.033223
C 3.994582 -0.879133 -0.789018
C 2.603144 -0.746576 -0.777872
C 2.734255 1.069950 0.682240
C 4.128275 0.993001 0.714420
H 5.878207 -0.081715 -0.027012
H 4.447331 -1.676664 -1.395470
H 1.948814 -1.424510 -1.342166
H 2.187193 1.830047 1.256418
H 4.688757 1.712109 1.328837
C -0.061726 2.137684 -0.263313
O -0.069476 3.308939 -0.374458
Br -0.173356 -2.182418 0.339966
