26

Ir -0.236270 0.104950 0.000004
As 2.113408 -0.175554 0.000005
C 2.721616 -1.254912 -1.515196
C 2.721864 -1.254267 1.515584
C 3.315230 1.366584 -0.000403
H 2.065369 -2.146101 -1.529610
H 3.783779 -1.549414 -1.405949
H 2.574137 -0.682962 -2.450544
H 2.065842 -2.145614 1.530333
H 2.574277 -0.682033 2.450738
H 3.784090 -1.548577 1.406415
H 3.106170 1.978397 -0.898571
H 4.374236 1.043348 -0.000722
H 3.106745 1.978460 0.897859
N -2.325800 -0.074690 -0.000020
C -4.550305 0.248317 0.000068
C -3.323571 0.882753 0.000055
N -4.268629 -1.105785 -0.000010
C -2.919618 -1.271867 -0.000067
H -4.952849 -1.862267 -0.000093
H -5.572705 0.637405 0.000097
H -3.087824 1.951653 0.000116
H -2.359966 -2.215869 -0.000118
C -0.190845 1.914377 -0.000007
O -0.158768 3.094767 -0.000046
F -0.247338 -1.925003 -0.000010
