30

Ir -0.211550 -0.041413 0.013074
N -2.398329 0.023580 -0.062636
C -3.032810 -1.317887 -0.070383
C -2.903087 0.775747 1.118379
C -2.803159 0.734851 -1.306842
H -2.594322 0.249305 2.040140
H -4.015152 0.846881 1.081378
H -2.455218 1.785794 1.119654
H -2.419542 0.177961 -2.181351
H -2.357644 1.745669 -1.305564
H -3.914628 0.803033 -1.363352
H -2.767274 -1.859536 0.854979
H -2.664160 -1.898356 -0.934872
H -4.140522 -1.217674 -0.132602
N 1.817151 0.049752 0.017651
C 4.115269 -0.463122 -0.265182
O 3.904727 0.873072 0.275796
C 2.580136 1.013362 0.439841
C 2.697417 -0.970432 -0.597687
H 2.470195 -1.968803 -0.178162
H 2.482232 -1.009409 -1.684958
H 4.624513 -1.066239 0.515688
H 4.784790 -0.376136 -1.142741
H 2.208047 1.946564 0.884354
C -0.146837 -1.907339 0.179068
N -0.055530 -3.130497 0.249612
H -0.074392 -3.714930 1.089554
C -0.222074 2.014159 -0.016909
C -0.197456 3.257460 -0.024595
H -0.182853 4.339420 -0.041715
