35

Ir -0.381688 -0.184417 -0.053301
C 1.593736 -0.277787 -0.057212
C 3.748215 -0.828535 0.455371
C 3.791074 0.174588 -0.475500
H 4.553162 -1.368910 0.962454
H 4.639991 0.687025 -0.937767
C 2.092590 1.524006 -1.737181
H 2.716318 1.436212 -2.648290
H 1.027934 1.370370 -1.992625
H 2.213008 2.535138 -1.298592
C 1.923186 -2.090245 1.643530
H 0.970387 -1.730653 2.074543
H 1.726200 -3.053906 1.133064
H 2.673458 -2.232899 2.444065
N 2.408114 -1.089554 0.703097
N 2.475806 0.494828 -0.781865
N -2.634755 0.099174 0.033634
C -3.008992 1.169503 -0.918980
C -3.378848 -1.133353 -0.300258
C -2.977488 0.517421 1.413205
H -3.125908 -1.452871 -1.328016
H -4.478430 -0.959766 -0.231257
H -3.091103 -1.944187 0.393666
H -2.404096 1.428036 1.665087
H -2.693477 -0.286281 2.118184
H -4.071422 0.718391 1.502583
H -2.744580 0.852346 -1.945303
H -2.438317 2.083359 -0.673363
H -4.103751 1.378330 -0.866978
C -0.464251 -1.953145 -0.519275
N -0.480921 -3.169789 -0.717857
H -0.506745 -3.612947 -1.640991
N -0.273712 1.811065 0.463914
C 0.284414 2.869527 0.649757
O 0.805476 3.937670 0.818310
