30

Ir -0.001194 -0.099428 0.007611
P -2.286780 -0.156422 -0.026562
C -5.416796 -0.261517 -0.094281
C -4.785508 0.991367 -0.197650
C -3.396449 1.171627 -0.179269
C -3.308486 -1.556050 0.079655
C -4.703974 -1.468844 0.036991
H -6.516479 -0.299602 -0.118750
H -5.421708 1.886629 -0.301122
H -2.969056 2.182410 -0.270814
H -2.791003 -2.523044 0.179575
H -5.280252 -2.406710 0.110442
P 2.284915 -0.159247 -0.026743
C 5.414914 -0.266313 -0.094491
C 4.701367 -1.472884 0.039657
C 3.305833 -1.559201 0.082632
C 3.395396 1.167786 -0.182630
C 4.784342 0.986682 -0.200766
H 6.514573 -0.305110 -0.118977
H 5.277065 -2.410934 0.115259
H 2.787814 -2.525663 0.184731
H 2.968607 2.178582 -0.276644
H 5.421061 1.881315 -0.306482
C 0.002518 1.762820 -0.037447
N 0.008713 2.964939 -0.117366
C 0.011842 4.273006 0.428472
H -0.882819 4.838174 0.091853
H 0.904075 4.837194 0.083954
H 0.016739 4.255177 1.540477
Cl 0.000017 -2.503699 0.119787
