32

Ir 0.156784 -0.127384 0.018797
N -1.962985 -0.138357 0.015292
C -2.676099 -0.979775 -0.778086
C -4.078030 -0.969362 -0.758500
N -4.795385 -0.146776 0.022107
C -4.078742 0.678952 0.803880
C -2.679475 0.696270 0.813310
H -2.093509 -1.671627 -1.404464
H -4.633865 -1.663025 -1.413214
H -4.636081 1.366320 1.463981
H -2.105973 1.379894 1.455208
P 2.422614 -0.218117 0.032048
C 3.197867 -1.028521 -1.436975
C 3.140535 -1.137986 1.461330
C 3.331736 1.387492 0.097586
H 2.786915 -2.049621 -1.552564
H 4.301584 -1.076871 -1.338111
H 2.926704 -0.449494 -2.340907
H 2.677595 -2.142872 1.495191
H 2.863563 -0.607394 2.392839
H 4.244331 -1.217160 1.385438
H 3.082161 1.983575 -0.801427
H 4.427011 1.221371 0.139357
H 3.003766 1.954127 0.990104
C 0.182629 1.737090 0.038733
N 0.191628 2.948606 0.147625
C 0.176307 4.164209 -0.599664
H -0.608003 4.848152 -0.213139
H -0.010453 3.992890 -1.683108
H 1.147219 4.694249 -0.492484
S -0.008387 -2.527792 0.073176
H 1.216500 -2.972064 -0.326478
