55

Ir 1.121722 -0.028152 0.005753
P -1.165180 -0.045579 -0.009403
C -1.426243 2.194583 -1.674254
C -1.907544 1.582563 -0.494784
C -1.944996 -0.434233 1.618457
C -1.167323 -0.294016 2.784691
C -1.732573 -0.557875 4.041438
C -3.071816 -0.968416 4.140357
C -3.847704 -1.119495 2.978429
C -3.287187 -0.857310 1.719109
C -2.016046 -1.245134 -1.147439
C -1.870735 -2.630295 -0.904025
C -2.501735 -3.560937 -1.740759
C -3.282008 -3.131501 -2.826910
C -3.433378 -1.758598 -3.069853
C -2.807110 -0.818926 -2.234376
C -2.890193 2.241185 0.268080
C -3.388480 3.489294 -0.144521
C -2.919290 4.085036 -1.325127
C -1.936672 3.432603 -2.091556
H -0.635048 1.694006 -2.255478
H -0.111363 0.004890 2.679759
H -1.118042 -0.454763 4.948982
H -3.511763 -1.182745 5.126788
H -4.894724 -1.452027 3.052263
H -3.891797 -0.991240 0.808448
H -1.261487 -2.988267 -0.060062
H -2.374070 -4.635837 -1.540681
H -3.772095 -3.867561 -3.482870
H -4.047321 -1.408748 -3.914310
H -2.947762 0.253138 -2.433164
H -3.265839 1.781920 1.194479
H -4.152528 3.997064 0.464275
H -3.316511 5.059516 -1.648947
H -1.561353 3.893182 -3.018717
N 3.242314 -0.143666 -0.022971
C 6.046254 -0.289607 -0.138816
C 5.248883 -1.083243 -0.975360
C 3.855078 -0.987080 -0.893136
C 4.012051 0.622270 0.792062
C 5.408728 0.576309 0.762981
H 7.144460 -0.345714 -0.185241
H 5.694141 -1.784298 -1.696001
H 3.177481 -1.617668 -1.492375
H 3.469487 1.288730 1.477589
H 5.983496 1.217321 1.447039
C 1.159672 1.856031 0.075555
N 1.194598 3.047050 0.214523
C 1.015702 4.431023 0.019116
H 1.091241 4.984447 0.979222
H 0.012571 4.629281 -0.418044
H 1.783961 4.841455 -0.671912
N 1.093066 -2.137853 0.062525
O 0.645667 -2.701052 1.080274
O 1.480352 -2.807547 -0.914980
