34

Ir -0.229268 0.061272 0.016329
P -2.559749 -0.127458 0.044359
C -3.183010 -0.443664 1.747303
C -3.097487 -1.633173 -0.867532
C -3.622573 1.228052 -0.605023
H -2.566442 -1.275320 2.141777
H -4.258149 -0.716041 1.756892
H -3.012882 0.451946 2.375337
H -2.460949 -2.451117 -0.476013
H -2.889378 -1.506228 -1.947448
H -4.171279 -1.862269 -0.711410
H -3.418854 2.152152 -0.029348
H -4.700307 0.976919 -0.535296
H -3.353430 1.420323 -1.662129
C 1.820154 -0.115119 0.059302
C 3.962743 -1.040361 -0.241698
C 4.105660 0.433724 0.174997
H 4.345458 -1.746253 0.531573
H 4.507791 1.071983 -0.646159
C 2.425182 2.117967 1.016827
H 2.535435 2.918509 0.251148
H 1.382303 2.121533 1.383873
H 3.109323 2.342504 1.862604
C 1.951265 -2.445179 -0.846849
H 2.462203 -3.288821 -0.334008
H 0.880785 -2.473136 -0.568372
H 2.085060 -2.571605 -1.943938
N 2.512527 -1.191445 -0.388028
N 2.723623 0.809348 0.482667
H 4.763571 0.576282 1.058423
H 4.485493 -1.275255 -1.193025
C -0.195424 1.710749 -0.731424
O -0.205045 2.787543 -1.214902
F -0.409737 -1.797313 0.842677
