39

Ir -0.182953 0.157842 -0.031865
N -2.305354 0.064939 -0.009162
C -2.965977 -0.912014 -0.681097
C -4.366961 -0.962970 -0.669062
N -5.128090 -0.071222 -0.015053
C -4.460825 0.888100 0.646134
C -3.062909 0.970975 0.660196
H -2.338518 -1.657435 -1.198176
H -4.884628 -1.766224 -1.221322
H -5.056641 1.635535 1.198543
H -2.529296 1.765892 1.200631
P 2.114402 0.081264 -0.000185
C 2.973507 1.648935 -0.505394
C 2.946517 -1.183925 -1.094515
C 2.967328 -2.642873 -0.627127
C 2.776830 -0.271262 1.694400
C 2.402769 0.792738 2.728887
C 2.783550 2.024917 -1.977013
H 2.567217 2.443473 0.153952
H 4.050332 1.531757 -0.254540
H 2.442906 -1.097328 -2.079932
H 3.986280 -0.811837 -1.231805
H 2.318991 -1.246494 1.962145
H 3.877306 -0.412976 1.618209
H 1.955614 -3.082467 -0.547294
H 3.539860 -3.252001 -1.356249
H 3.463731 -2.755157 0.357163
H 2.868037 1.775902 2.511076
H 1.303059 0.936195 2.755577
H 2.735006 0.485335 3.741091
H 3.249812 1.284832 -2.658065
H 1.708138 2.086286 -2.239647
H 3.245654 3.009907 -2.192806
C -0.221524 2.002880 -0.216272
N -0.271138 3.223954 -0.208185
H -0.355114 3.882939 -0.984797
N -0.141954 -1.954116 0.183117
O 0.308496 -2.470877 1.219726
O -0.494059 -2.667469 -0.780630
