28

Ir 0.008058 -0.086297 -0.000012
P 2.268585 0.063617 0.000104
C 2.970476 0.971283 1.443091
C 2.970431 0.971500 -1.442783
C 3.226055 -1.512762 -0.000019
H 2.498917 1.972494 1.472486
H 4.072978 1.064314 1.364042
H 2.703572 0.430963 2.371743
H 2.499020 1.972793 -1.471887
H 2.703264 0.431432 -2.371506
H 4.072960 1.064363 -1.363916
H 2.956132 -2.104435 0.896101
H 4.317106 -1.315866 0.000197
H 2.956448 -2.104100 -0.896455
N -2.127802 0.000291 -0.000075
C -4.311421 -0.560499 -0.000038
C -3.023533 -1.056493 -0.000234
N -4.176796 0.815216 0.000331
C -2.852455 1.122723 0.000302
H -4.937164 1.495200 0.000794
H -5.285509 -1.058317 -0.000185
H -2.681678 -2.095986 -0.000551
H -2.425798 2.133264 0.000533
C 0.039995 -1.957777 -0.000009
O 0.096177 -3.130834 -0.000159
C 0.056604 1.961827 -0.000194
C 0.108625 3.203264 -0.000435
H 0.154636 4.284241 -0.000678
