52

Ir -0.945373 -0.294475 -0.029097
P 1.367762 -0.034567 -0.013724
C 2.284167 -2.577667 -0.776412
C 2.311304 -1.604206 0.246432
C 1.987166 1.067219 1.332588
C 1.246242 1.112872 2.532120
C 1.697100 1.889865 3.609280
C 2.880758 2.636997 3.492432
C 3.613318 2.604688 2.294732
C 3.171196 1.821820 1.216744
C 2.140307 0.631134 -1.560272
C 1.393791 1.493072 -2.389944
C 1.973804 2.028994 -3.550075
C 3.296365 1.708915 -3.896465
C 4.043406 0.848874 -3.075283
C 3.470337 0.310688 -1.912483
C 2.987982 -1.886893 1.447811
C 3.629467 -3.124934 1.622809
C 3.605895 -4.085771 0.601121
C 2.932982 -3.807417 -0.601598
H 1.753511 -2.363554 -1.717983
H 0.304578 0.543965 2.599187
H 1.112113 1.921857 4.541255
H 3.229079 3.254537 4.334834
H 4.535324 3.198043 2.194737
H 3.746247 1.808546 0.278726
H 0.359219 1.749079 -2.112319
H 1.381928 2.701499 -4.189970
H 3.746120 2.127612 -4.810153
H 5.080354 0.591112 -3.341081
H 4.060257 -0.369944 -1.279801
H 3.015244 -1.136630 2.252228
H 4.154761 -3.335507 2.567145
H 4.112792 -5.053134 0.739618
H 2.914386 -4.555168 -1.409914
As -3.383150 -0.386689 -0.061542
C -4.242176 -2.148861 -0.112077
C -4.218607 0.536308 -1.572266
C -4.251259 0.462726 1.473627
H -3.954299 -2.657942 -1.051609
H -5.343881 -2.050503 -0.060534
H -3.871466 -2.750818 0.739068
H -3.921395 0.028943 -2.509540
H -3.822643 1.569691 -1.578420
H -5.321595 0.538080 -1.471505
H -3.973062 -0.089553 2.391130
H -5.351941 0.469132 1.350272
H -3.858183 1.495227 1.538075
C -0.833127 -2.120019 0.061488
N -0.815906 -3.325164 0.277803
H -0.589713 -4.081967 -0.369812
Br -1.273934 2.253912 0.000088
