55

Ir 1.159471 -0.217938 0.030949
P -1.108261 -0.138581 0.010241
C -1.122876 1.438649 -2.304876
C -1.746122 1.249112 -1.051217
C -1.903110 0.187511 1.655036
C -1.137969 0.793254 2.672331
C -1.720295 1.085419 3.915504
C -3.067302 0.769611 4.156621
C -3.832207 0.156741 3.150221
C -3.254460 -0.135364 1.904738
C -2.076733 -1.593991 -0.590146
C -1.990701 -2.793895 0.148976
C -2.713226 -3.923850 -0.257057
C -3.517834 -3.875100 -1.408174
C -3.600180 -2.687355 -2.150206
C -2.885147 -1.548406 -1.742548
C -2.778288 2.122631 -0.657977
C -3.183728 3.167370 -1.506579
C -2.570018 3.343275 -2.756741
C -1.539055 2.473873 -3.155363
H -0.290903 0.774321 -2.590962
H -0.076246 1.012465 2.475978
H -1.113222 1.554166 4.705509
H -3.520965 0.992848 5.134815
H -4.886066 -0.101929 3.337138
H -3.854949 -0.626203 1.123154
H -1.347775 -2.842665 1.039565
H -2.638695 -4.854463 0.326456
H -4.080632 -4.766109 -1.727222
H -4.228586 -2.640480 -3.053094
H -2.963443 -0.619725 -2.326848
H -3.264483 1.995411 0.320687
H -3.986673 3.848721 -1.184801
H -2.891491 4.161043 -3.420331
H -1.049159 2.607950 -4.132334
N 3.292499 -0.281002 0.049782
C 6.108518 -0.352347 0.066021
C 5.368497 -1.253359 -0.711884
C 3.970315 -1.194987 -0.692124
C 4.010063 0.592071 0.802833
C 5.407449 0.584882 0.840089
H 7.208794 -0.379373 0.071090
H 5.862747 -2.012117 -1.335873
H 3.344780 -1.903853 -1.253526
H 3.422932 1.317019 1.383850
H 5.932520 1.314085 1.473990
C 1.146496 1.697280 0.068324
N 1.095450 2.900385 0.100205
C 0.770520 4.182633 -0.404145
H 0.409557 4.847338 0.408794
H -0.026467 4.110745 -1.176550
H 1.660905 4.665581 -0.861229
C 1.186224 -2.240897 -0.108381
C 1.282675 -3.474697 -0.218977
H 1.337496 -4.550942 -0.310662
