36

Ir -0.436502 0.271658 0.023454
As 0.871657 -1.693253 0.035216
C -0.059999 -3.416796 0.068287
C 2.116233 -1.839367 1.541673
C 2.095393 -1.891316 -1.482532
H -0.731324 -3.442732 0.947457
H 0.666937 -4.250346 0.119557
H -0.671831 -3.508782 -0.849421
H 1.547673 -1.780605 2.488531
H 2.821746 -0.987452 1.484753
H 2.675532 -2.794158 1.488971
H 1.515286 -1.851078 -2.423372
H 2.643449 -2.851420 -1.411609
H 2.812316 -1.047265 -1.458895
N -1.436026 2.274707 0.025818
C -2.912201 2.182847 0.066573
C -0.960429 3.014280 1.221057
C -1.025303 2.994928 -1.204557
H -1.261880 2.465843 2.132628
H -1.397229 4.040249 1.241668
H 0.142301 3.078132 1.194236
H -1.372735 2.430971 -2.089985
H 0.077143 3.059559 -1.237179
H -1.464612 4.019871 -1.219271
H -3.226196 1.632885 0.972247
H -3.273184 1.631240 -0.820591
H -3.364990 3.201507 0.075670
C -1.999424 -0.712788 0.095653
N -3.000109 -1.388849 0.225131
C -4.012033 -2.165095 -0.400348
H -5.001782 -1.973184 0.065040
H -3.803096 -3.251249 -0.281209
H -4.093595 -1.950302 -1.489652
N 1.358022 1.271168 -0.060412
C 2.549580 1.442352 -0.091057
S 4.150120 1.645911 -0.132495
