35

Ir -0.238259 -0.101889 -0.008613
P -2.544312 -0.180402 -0.031595
C -3.307995 -1.031912 1.415719
C -3.241073 -1.102687 -1.468408
C -3.443211 1.428914 -0.088327
H -2.863269 -2.043796 1.495488
H -4.410114 -1.104967 1.311973
H -3.051725 -0.472156 2.335887
H -2.796965 -2.117777 -1.464956
H -2.931367 -0.595145 -2.402331
H -4.347761 -1.164842 -1.419582
H -3.188942 2.016105 0.815339
H -4.540079 1.273074 -0.133576
H -3.107464 1.999984 -0.975350
As 2.187525 -0.151460 -0.022871
C 3.013565 -1.132644 -1.510339
C 3.046832 -0.984317 1.534309
C 3.141613 1.561699 -0.118371
H 2.578651 -2.149640 -1.542241
H 4.113853 -1.187712 -1.393615
H 2.755654 -0.614341 -2.453448
H 2.595254 -1.983041 1.686028
H 2.826539 -0.365376 2.424858
H 4.141943 -1.071499 1.391909
H 2.795996 2.108639 -1.016134
H 4.236892 1.404967 -0.165062
H 2.885435 2.159411 0.777293
C -0.230109 1.752454 -0.162289
N -0.213655 2.957986 -0.343707
C -0.169630 4.187878 0.381611
H -1.039402 4.826527 0.117281
H 0.742775 4.763341 0.114688
H -0.173040 4.033482 1.484204
S -0.327452 -2.502578 0.204298
H 0.974269 -2.906507 0.136946
