37

Ir -0.138163 0.284549 -0.030952
P 2.149837 0.122853 0.006238
C 2.958237 -0.547432 -1.532297
C 2.809814 -0.954157 1.366645
C 2.377279 -0.505294 2.763898
C 3.089663 1.713004 0.265316
C 3.178768 2.647239 -0.944753
C 2.651666 -2.002739 -1.886156
H 2.625672 0.128164 -2.347865
H 4.052398 -0.386047 -1.406544
H 2.414268 -1.968080 1.152588
H 3.916631 -0.985475 1.260890
H 2.591294 2.222212 1.116019
H 4.106583 1.426964 0.612533
H 1.271041 -0.486438 2.836122
H 2.761065 -1.204680 3.534312
H 2.753187 0.507521 3.016184
H 3.762693 2.198089 -1.772586
H 2.179716 2.917814 -1.337222
H 3.685132 3.592085 -0.660387
H 3.023794 -2.704577 -1.113261
H 1.561897 -2.174475 -1.981683
H 3.139170 -2.272556 -2.845432
N -2.288439 0.302769 -0.066180
C -5.098724 0.309366 -0.109844
C -4.369000 -0.566477 -0.925635
C -2.970768 -0.545913 -0.874457
C -2.993549 1.151985 0.721145
C -4.391669 1.182454 0.730032
H -6.199148 0.312187 -0.127575
H -4.870996 -1.272274 -1.602946
H -2.355796 -1.232403 -1.473587
H -2.400193 1.822068 1.359758
H -4.911229 1.888469 1.393656
C -0.082694 2.100730 -0.129072
O -0.083014 3.278051 -0.153900
Br -0.313918 -2.237772 0.220065
