32

Ir 0.374113 0.070025 -0.010700
As -1.977293 -0.013042 -0.007991
C -2.949293 1.677264 -0.212402
C -2.811594 -0.731945 1.619538
C -2.790690 -1.109195 -1.416417
H -2.612998 2.380879 0.572076
H -4.040766 1.507205 -0.135866
H -2.704955 2.108658 -1.201747
H -2.546789 -0.068884 2.464866
H -2.397830 -1.738042 1.820510
H -3.912430 -0.787351 1.507865
H -2.569529 -0.637070 -2.392468
H -3.885680 -1.196230 -1.273040
H -2.307207 -2.103798 -1.393332
N 2.635785 0.012402 -0.004247
C 3.229200 1.360229 -0.166636
C 3.072900 -0.549415 1.299194
C 3.123059 -0.847470 -1.111101
H 2.701576 0.098750 2.114485
H 4.186305 -0.604203 1.342205
H 2.635450 -1.557370 1.424435
H 2.773193 -0.433320 -2.074685
H 2.719539 -1.870998 -0.999806
H 4.237363 -0.889893 -1.105605
H 2.884767 2.024396 0.645816
H 2.907062 1.792625 -1.131349
H 4.341904 1.294928 -0.145955
C 0.317115 1.910559 0.006226
N 0.251033 3.133110 0.154777
H 0.130991 3.798818 -0.616380
S 0.457421 -2.351494 0.002415
H -0.766629 -2.735487 0.462815
