30

Ir 0.208192 -0.310873 -0.071386
N 2.359352 -0.204932 -0.039463
C 4.537339 -0.794028 -0.093497
C 3.242128 -1.266315 -0.161034
N 4.421624 0.573117 0.071136
C 3.100796 0.897331 0.098643
H 5.190219 1.237774 0.159149
H 5.504107 -1.303146 -0.147404
H 2.887021 -2.293545 -0.289483
H 2.686661 1.906035 0.227077
C -1.784720 -0.256750 -0.074769
C -4.021146 -0.549248 0.570879
C -3.959541 0.409049 -0.630072
H -4.463628 -1.538366 0.303567
H -4.182164 1.462761 -0.339199
C -2.067825 1.014671 -2.195511
H -2.080744 2.112937 -2.018921
H -1.018150 0.706979 -2.368483
H -2.684310 0.776517 -3.087998
C -2.194455 -1.445333 2.078445
H -2.496433 -2.515236 2.006958
H -1.090736 -1.381793 2.147266
H -2.645866 -1.011908 2.996275
N -2.607283 -0.700598 0.912964
N -2.562500 0.289316 -1.047135
H -4.651989 0.128862 -1.450571
H -4.600013 -0.141133 1.425133
C 0.206150 -2.098184 -0.402228
O 0.185411 -3.260738 -0.596510
Br 0.071464 2.191740 0.465080
