30

Ir 0.314784 0.069189 -0.004925
N 2.513563 -0.018231 -0.017472
C 3.141367 1.286752 -0.346553
C 2.985795 -0.441796 1.329669
C 2.963909 -1.007935 -1.033403
H 2.647294 0.298251 2.078058
H 4.098618 -0.507736 1.342124
H 2.535216 -1.421546 1.573765
H 2.591821 -0.700202 -2.027685
H 2.553828 -2.005399 -0.790694
H 4.076695 -1.062244 -1.048871
H 2.852633 2.038672 0.408851
H 2.790630 1.629980 -1.336262
H 4.250427 1.184692 -0.357440
N -1.717640 0.031318 -0.015650
C -4.542289 -0.072720 -0.028568
C -3.781726 -0.952975 -0.811591
C -2.386459 -0.874835 -0.788375
C -2.459764 0.886006 0.744877
C -3.855852 0.863261 0.760318
H -5.641742 -0.112117 -0.034542
H -4.259044 -1.706800 -1.454424
H -1.749775 -1.550403 -1.375551
H -1.887196 1.598058 1.353414
H -4.393208 1.580860 1.397121
C 0.276782 1.901694 -0.218196
N 0.161830 3.105257 -0.449206
H 0.233104 3.855709 0.245326
S 0.321380 -2.333564 0.318861
H -0.834607 -2.463393 1.031462
