24

Ir 0.005786 -0.240982 -0.035689
N 2.059689 -0.126816 -0.038478
C 4.151066 0.667978 -0.301917
C 2.812036 0.966660 -0.445212
N 4.200412 -0.619543 0.194761
C 2.926211 -1.073457 0.345038
H 5.042558 -1.149985 0.416629
H 5.050774 1.254591 -0.508666
H 2.323671 1.878251 -0.799199
H 2.661319 -2.069113 0.713394
N -2.050015 -0.205452 -0.040014
C -4.222261 -0.753770 0.213074
C -2.926251 -1.202360 0.364515
N -4.116377 0.527480 -0.290242
C -2.798842 0.832364 -0.436302
H -4.889082 1.152730 -0.518140
H -5.184958 -1.229879 0.419868
H -2.563772 -2.166742 0.731600
H -2.403149 1.782789 -0.805407
C 0.050429 -2.061919 -0.016081
O 0.093009 -3.240699 0.036499
N -0.045063 1.806050 -0.014405
C -0.084216 2.979082 0.273114
O -0.127059 4.153631 0.518405
