31

Ir -0.010966 -0.018978 0.008671
N -2.045637 -0.031261 -0.006979
C -2.748395 -1.029242 -0.617042
C -4.146923 -1.050163 -0.586929
N -4.887549 -0.115613 0.030660
C -4.187599 0.862613 0.629645
C -2.791170 0.921471 0.622584
H -2.170150 -1.801117 -1.141373
H -4.682073 -1.871203 -1.094499
H -4.758031 1.649375 1.153623
H -2.239373 1.727613 1.124261
N 2.053865 -0.137606 0.059937
C 4.862621 -0.303073 0.105349
C 4.105205 -1.129841 -0.735078
C 2.709963 -1.024168 -0.736984
C 2.788008 0.662081 0.881375
C 4.182370 0.606767 0.930065
H 5.961192 -0.366648 0.121899
H 4.582832 -1.866368 -1.397209
H 2.061055 -1.682827 -1.335462
H 2.213193 1.357592 1.508653
H 4.722727 1.275051 1.615889
C 0.070729 1.856080 -0.132906
N 0.136650 3.056837 -0.174414
C 0.280797 4.335930 -0.759959
H 1.080978 4.912211 -0.249419
H -0.659802 4.918119 -0.662096
H 0.535785 4.265326 -1.840184
N -0.102650 -2.126721 0.167804
O 0.445847 -2.873592 -0.672140
O -0.775887 -2.604653 1.095702
