32

Ir -0.000003 -0.064640 -0.000025
N -2.176248 0.043517 -0.000075
C -2.837520 -1.287064 -0.000394
C -2.620911 0.779946 1.216219
C -2.620800 0.780427 -1.216181
H -2.278632 0.231550 2.112812
H -3.732414 0.861205 1.226280
H -2.163772 1.785222 1.216989
H -2.278281 0.232421 -2.112916
H -2.163724 1.785730 -1.216433
H -3.732302 0.861568 -1.226341
H -2.534315 -1.853818 0.897946
H -2.534183 -1.853447 -0.898921
H -3.943993 -1.162171 -0.000426
N 2.176234 0.043629 -0.000101
C 2.837575 -1.286917 -0.000306
C 2.620754 0.780493 -1.216197
C 2.620838 0.780165 1.216203
H 2.278514 0.232320 -2.112939
H 3.732247 0.861900 -1.226269
H 2.163489 1.785712 -1.216639
H 2.278362 0.231880 2.112785
H 2.163743 1.785462 1.216794
H 3.732338 0.861322 1.226337
H 2.534261 -1.853405 -0.898774
H 2.534410 -1.853603 0.898091
H 3.944042 -1.161969 -0.000379
C 0.000092 -1.926686 0.000166
O 0.000220 -3.103822 0.000448
C -0.000056 1.993223 0.000251
C -0.000142 3.236618 0.000418
H -0.000216 4.318765 0.000530
