32

Ir 0.068113 -0.097194 0.016611
N 2.196641 0.004964 -0.016567
C 2.854639 0.926959 -0.767460
C 4.254226 0.984548 -0.775666
N 5.030187 0.154867 -0.059245
C 4.369525 -0.749163 0.682985
C 2.973003 -0.837535 0.714957
H 2.222662 1.633346 -1.327730
H 4.760663 1.742904 -1.398028
H 4.971804 -1.446563 1.291319
H 2.453632 -1.593086 1.321853
C -1.928354 -0.049896 0.028836
C -4.168170 -0.349405 -0.596980
C -4.096026 0.635499 0.581350
H -4.751492 0.040293 -1.456699
H -4.782944 0.375567 1.412898
C -2.186594 1.293043 2.106174
H -2.824233 1.127709 2.999458
H -1.152940 0.957366 2.316221
H -2.153600 2.378679 1.867827
C -2.351924 -1.290214 -2.091034
H -2.802633 -0.878826 -3.019258
H -1.248097 -1.236993 -2.165426
H -2.663500 -2.355585 -1.992142
N -2.756099 -0.512811 -0.944459
N -2.695284 0.522324 0.991961
H -4.318783 1.682634 0.268380
H -4.610839 -1.331030 -0.303969
C 0.085773 -1.886133 0.397422
N 0.112105 -3.056480 0.772780
H 0.121313 -3.882937 0.168597
Cl -0.030305 2.259660 -0.479833
