39

Ir 0.453664 0.108712 0.016951
P -1.815276 -0.044496 -0.033067
C -2.637451 -0.681556 1.513194
C -2.435349 -1.169966 -1.372243
C -2.033451 -0.720330 -2.778653
C -2.762093 1.530120 -0.342645
C -2.852780 2.499368 0.839452
C -2.366379 -2.140302 1.882717
H -2.289786 -0.004181 2.320986
H -3.727642 -0.496348 1.385084
H -1.984736 -2.157060 -1.141749
H -3.538534 -1.256540 -1.260163
H -2.267516 2.016552 -1.208531
H -3.777510 1.226272 -0.679367
H -0.930884 -0.626765 -2.852365
H -2.369409 -1.457588 -3.535980
H -2.475589 0.260308 -3.049819
H -3.427610 2.070536 1.684263
H -1.852660 2.788556 1.215592
H -3.368311 3.431194 0.529850
H -2.770656 -2.839464 1.123451
H -1.280871 -2.341722 1.964008
H -2.849439 -2.384075 2.851114
N 2.730438 0.055419 0.068960
C 3.321944 1.412166 0.111151
C 3.150087 -0.690044 1.281192
C 3.214016 -0.644363 -1.146279
H 2.783947 -0.158256 2.179375
H 4.261696 -0.766770 1.322964
H 2.700022 -1.699210 1.256844
H 2.889509 -0.082613 -2.042187
H 2.769404 -1.655764 -1.179841
H 4.326758 -0.715368 -1.135399
H 2.962536 1.949808 1.007610
H 3.020154 1.982066 -0.786568
H 4.434356 1.349383 0.144870
C 0.392751 1.919818 -0.027474
O 0.354607 3.097025 -0.086363
Cl 0.538944 -2.305289 -0.028090
