29

Ir 0.136373 -0.160765 0.036547
N -1.889747 -0.197618 0.040254
C -2.597697 -1.209106 -0.549821
C -3.995617 -1.216101 -0.544316
N -4.746506 -0.258467 0.027368
C -4.044252 0.727576 0.612244
C -2.648419 0.775916 0.630536
H -2.004870 -2.013526 -1.005309
H -4.525656 -2.049950 -1.037137
H -4.614297 1.535745 1.103775
H -2.105536 1.595457 1.119037
N 2.208248 -0.206518 0.041903
C 4.379531 0.365516 0.254848
C 3.082303 0.819178 0.373099
N 4.275834 -0.951012 -0.153320
C 2.960192 -1.268988 -0.274281
H 5.050118 -1.590665 -0.330599
H 5.341916 0.856332 0.426168
H 2.713729 1.803833 0.673503
H 2.555383 -2.249651 -0.550239
C 0.147478 1.744016 -0.020420
N 0.158589 2.952243 -0.020623
C 0.132058 4.224101 -0.643813
H 0.990020 4.845074 -0.308909
H -0.794433 4.774059 -0.372636
H 0.173687 4.141203 -1.752494
C 0.156108 -2.202254 0.047965
C 0.178755 -3.445266 0.047194
H 0.171648 -4.526948 0.072225
