45

Ir -0.021520 -0.261688 0.078860
P 2.298015 0.142671 -0.070657
C 3.026795 1.185104 1.289514
C 2.731133 1.086749 -1.609155
C 2.345124 0.359275 -2.899155
C 3.464114 -1.307740 -0.131769
C 3.604364 -2.098345 1.172070
C 2.374358 2.558195 1.464687
H 2.908215 0.583912 2.215288
H 4.119835 1.274118 1.099465
H 2.161092 2.034779 -1.525325
H 3.815162 1.333022 -1.577272
H 3.081292 -1.963295 -0.941755
H 4.451513 -0.921486 -0.468391
H 1.262644 0.117902 -2.895826
H 2.554436 0.992878 -3.785122
H 2.904612 -0.589759 -3.030067
H 4.037524 -1.482673 1.985859
H 2.631135 -2.493046 1.522110
H 4.278891 -2.966420 1.024537
H 2.525026 3.206263 0.578295
H 1.280986 2.462591 1.613482
H 2.805741 3.084520 2.340562
C -2.075116 -0.357041 0.114216
C -4.290056 0.263157 0.564392
C -4.289433 -0.902813 -0.438354
H -4.942868 0.084982 1.443628
H -4.883812 -0.693962 -1.351687
C -2.406584 -1.977094 -1.750333
H -2.910390 -1.786490 -2.721545
H -1.314107 -1.843602 -1.871888
H -2.613443 -3.027821 -1.445057
C -2.439843 1.290667 1.950183
H -2.996333 1.136583 2.898790
H -1.358099 1.136555 2.125188
H -2.601396 2.335345 1.603069
N -2.878623 0.334499 0.956936
N -2.863939 -1.035672 -0.754568
H -4.674983 -1.849823 0.007111
H -4.602021 1.226004 0.097363
C 0.148474 -2.017082 0.565579
O 0.218822 -3.154495 0.863886
N -0.283650 1.700172 -0.496823
C -0.910938 2.720245 -0.662633
O -1.499406 3.755261 -0.822313
