34

Ir 0.091628 0.201315 0.043762
N 2.204440 0.032634 -0.008644
C 2.837850 -1.066886 0.478750
C 4.234396 -1.170833 0.428182
N 5.027849 -0.214290 -0.081206
C 4.389934 0.867536 -0.557987
C 2.997589 1.005068 -0.532748
H 2.183271 -1.861324 0.879158
H 4.722991 -2.076546 0.827576
H 5.008186 1.675154 -0.987820
H 2.494668 1.900116 -0.926077
C -1.916619 0.184308 0.028982
C -4.140851 -0.037103 0.730063
C -4.077881 -0.101898 -0.804742
H -4.687013 -0.890891 1.181236
H -4.801441 0.574246 -1.304344
C -2.191920 0.321272 -2.433183
H -2.812332 0.999459 -3.055137
H -1.146661 0.685542 -2.402991
H -2.186346 -0.700063 -2.870419
C -2.294078 -0.126853 2.469101
H -2.648990 -1.063478 2.949139
H -1.185744 -0.108754 2.479590
H -2.682905 0.738233 3.053263
N -2.722463 -0.064045 1.091754
N -2.694215 0.297780 -1.075419
H -4.247677 -1.135080 -1.187690
H -4.615399 0.903157 1.098600
C 0.170610 2.035978 0.312938
N 0.208642 3.255341 0.368282
H 0.322911 3.879620 1.168570
N -0.138800 -1.910349 -0.259029
O -0.864511 -2.299968 -1.190814
O 0.361359 -2.732987 0.535987
