27

Ir 0.000491 0.109106 0.054872
P -2.275474 -0.055242 -0.003091
C -5.350517 -0.562814 -0.128716
C -4.888957 0.766068 -0.159543
C -3.536143 1.130097 -0.109649
C -3.096636 -1.582282 0.015367
C -4.490548 -1.675985 -0.046187
H -6.435750 -0.740670 -0.173432
H -5.637300 1.573453 -0.229235
H -3.240951 2.190535 -0.144599
H -2.444974 -2.467853 0.075155
H -4.943458 -2.681794 -0.030230
P 2.276087 -0.054187 -0.002197
C 5.351066 -0.562042 -0.129388
C 4.491098 -1.675237 -0.046927
C 3.097269 -1.581353 0.015244
C 3.536867 1.131119 -0.108644
C 4.889588 0.766882 -0.159311
H 6.436281 -0.739854 -0.174733
H 4.943971 -2.681070 -0.031541
H 2.445343 -2.466762 0.075007
H 3.241873 2.191637 -0.142574
H 5.638061 1.574160 -0.228984
C -0.001588 1.948318 0.072730
N -0.005897 3.170214 -0.000791
H -0.007997 3.840850 0.771310
F -0.001087 -1.906721 0.089298
