34

Ir -0.241922 -0.183011 -0.011545
As 2.104197 -0.602567 -0.032215
C 2.697490 -2.469985 -0.014977
C 3.109722 0.189398 1.450011
C 3.051891 0.144371 -1.574516
H 2.339780 -2.948710 0.916718
H 3.801807 -2.530245 -0.067360
H 2.247665 -2.994109 -0.879588
H 2.686859 -0.168024 2.407510
H 3.000379 1.290087 1.390218
H 4.180214 -0.085945 1.377925
H 2.602563 -0.252946 -2.503749
H 4.127971 -0.114243 -1.527561
H 2.928236 1.244780 -1.549899
N -2.274006 0.395930 -0.015628
C -4.965147 1.233143 -0.028424
C -3.967952 2.019157 0.566426
C -2.642367 1.574674 0.553594
C -3.241338 -0.365325 -0.592628
C -4.584850 0.018349 -0.618711
H -6.015910 1.559860 -0.033324
H -4.203965 2.981615 1.043022
H -1.823518 2.166659 0.986578
H -2.905218 -1.311868 -1.038591
H -5.320996 -0.638892 -1.103889
C -0.629722 -1.993561 -0.026757
N -0.865956 -3.180178 -0.119050
C -1.018444 -4.431451 0.537316
H -0.082382 -5.027711 0.463919
H -1.823418 -5.030011 0.062165
H -1.265520 -4.309698 1.615415
N 0.301511 1.795687 0.016957
C 1.008714 2.769396 -0.000111
S 1.979756 4.058555 -0.018174
