50

Ir -0.014229 -0.051893 -0.013419
P 2.334734 0.054312 -0.068327
C 2.968317 1.486981 -1.072367
C 3.303150 -1.380583 -0.782962
C 3.728822 -2.479811 0.196099
C 3.120252 0.331269 1.595021
C 2.525437 1.499209 2.384508
C 2.505115 1.449949 -2.530421
H 2.590362 2.401309 -0.569538
H 4.077262 1.499366 -0.991332
H 2.655267 -1.805405 -1.577336
H 4.192088 -0.942088 -1.286640
H 2.971117 -0.618659 2.148852
H 4.215748 0.452099 1.442644
H 2.854136 -2.906352 0.724976
H 4.221595 -3.305565 -0.357272
H 4.453599 -2.110706 0.949257
H 2.639343 2.468174 1.858358
H 1.440141 1.345488 2.548436
H 3.020600 1.592752 3.372565
H 2.898062 0.562198 -3.067189
H 1.397558 1.403444 -2.583260
H 2.847752 2.350338 -3.080657
P -2.353931 -0.028666 0.044917
C -3.323540 -1.597896 0.331806
C -3.185813 0.633436 -1.487917
C -2.689170 1.994855 -1.975065
C -3.009763 1.079891 1.387835
C -2.534662 0.671296 2.784460
C -3.428718 -2.543483 -0.869973
H -2.831031 -2.102635 1.189612
H -4.333247 -1.292816 0.683920
H -3.009340 -0.132276 -2.271328
H -4.280855 0.648463 -1.290219
H -2.637707 2.097103 1.144982
H -4.119365 1.102801 1.315866
H -1.608508 1.949334 -2.216788
H -3.236481 2.304105 -2.888968
H -2.832401 2.789686 -1.215209
H -2.913874 -0.329230 3.077492
H -1.426295 0.632391 2.816090
H -2.881770 1.396492 3.548483
H -4.060972 -2.118301 -1.674762
H -2.431450 -2.766200 -1.299451
H -3.889773 -3.505513 -0.565719
C -0.061752 1.795276 0.055971
N -0.070176 3.013511 0.252224
H -0.188740 3.705589 -0.496165
S 0.223170 -2.437297 -0.015952
H -0.994790 -2.894500 0.382359
