24

Ir 0.100461 0.068270 -0.015882
N -1.943371 0.029086 0.002290
C -2.631393 -1.032927 -0.507567
C -4.030611 -1.054024 -0.500180
N -4.785058 -0.058693 -0.006835
C -4.098744 0.980899 0.495162
C -2.702016 1.042321 0.510434
H -2.027517 -1.866238 -0.892040
H -4.554724 -1.928375 -0.923348
H -4.678672 1.820836 0.915499
H -2.168291 1.904852 0.930934
N 2.154358 -0.018192 -0.035484
C 4.461449 0.478404 0.215420
O 4.221410 -0.882831 -0.254764
C 2.899712 -1.040442 -0.331525
C 3.053638 1.108723 0.297473
H 2.895671 1.930981 -0.429629
H 2.801248 1.496412 1.303651
H 5.136355 0.972789 -0.510040
H 4.975234 0.407301 1.195098
H 2.503605 -2.027636 -0.610866
C 0.124916 1.872284 -0.272071
O 0.150260 3.039805 -0.417661
Cl 0.115588 -2.295312 0.380022
