34

Ir 0.318520 0.182113 -0.060144
C -1.671892 0.058355 -0.037781
C -3.863951 0.336955 0.511590
C -3.809348 -0.520486 -0.556269
H -4.716399 0.716486 1.082730
H -4.606377 -1.033953 -1.102424
C -1.960157 -1.486573 -1.981956
H -1.678618 -0.836090 -2.833752
H -1.069679 -2.048721 -1.638606
H -2.748577 -2.193582 -2.301074
C -2.154079 1.562162 1.899079
H -1.057273 1.462160 2.016216
H -2.403845 2.615482 1.657861
H -2.660076 1.266778 2.838707
N -2.553578 0.676216 0.816652
N -2.469484 -0.681187 -0.876068
N 2.572918 0.077001 -0.032575
C 3.004470 -1.036819 -0.914335
C 3.192917 1.332299 -0.518756
C 3.026806 -0.169741 1.359052
H 2.860062 1.536107 -1.553038
H 4.304627 1.250397 -0.501718
H 2.882708 2.175624 0.125111
H 2.556435 -1.087245 1.754981
H 2.712943 0.677753 1.996252
H 4.136968 -0.267971 1.393776
H 2.669978 -0.828674 -1.947616
H 2.538065 -1.983442 -0.588541
H 4.114735 -1.137716 -0.897470
C 0.224897 1.920039 -0.655786
O 0.119185 3.032779 -1.017851
N 0.335912 -1.818377 0.683455
O 0.328072 -2.793109 -0.099689
O 0.365239 -1.997023 1.912590
