29

Ir 0.208643 0.062252 -0.004572
N 2.404841 0.017294 -0.008245
C 3.012585 1.353226 -0.232621
C 2.882365 -0.502822 1.302811
C 2.874506 -0.884740 -1.095003
H 2.533069 0.172241 2.105676
H 3.996207 -0.554408 1.311568
H 2.444438 -1.504915 1.466558
H 2.499977 -0.509018 -2.064691
H 2.481273 -1.903983 -0.925596
H 3.988219 -0.919519 -1.110186
H 2.706713 2.039981 0.576408
H 2.661486 1.765618 -1.195446
H 4.123333 1.270830 -0.243675
N -1.816502 -0.028809 -0.031115
C -4.124660 0.446926 0.270173
O -3.898884 -0.786995 -0.470690
C -2.570350 -0.923481 -0.599046
C -2.709146 0.950809 0.628771
H -2.499852 0.950050 1.717227
H -2.487891 1.964910 0.242042
H -4.753178 0.205594 1.150331
H -4.685692 1.139184 -0.390303
H -2.185904 -1.795156 -1.146956
C 0.135461 1.897274 -0.118393
N -0.000400 3.111866 -0.290373
H 0.122322 3.819913 0.441196
S 0.240321 -2.365428 0.156673
H -0.784200 -2.517514 1.044640
