26

Ir -0.150348 0.019896 -0.035995
N -2.206195 -0.111609 0.006316
C -4.409527 0.282940 0.234023
C -3.157666 0.864065 0.256280
N -4.193664 -1.056817 -0.033705
C -2.857842 -1.268480 -0.167696
H -4.910670 -1.776943 -0.117410
H -5.409143 0.700770 0.384957
H -2.868326 1.903019 0.441004
H -2.324822 -2.210046 -0.363357
N 1.883382 -0.082124 -0.001638
C 4.700295 -0.349011 0.117066
C 4.100359 0.855530 -0.282906
C 2.709060 0.954201 -0.332206
C 2.469644 -1.254038 0.395354
C 3.854927 -1.415610 0.459029
H 5.794639 -0.449967 0.167501
H 4.704263 1.732181 -0.559465
H 2.210210 1.887530 -0.624550
H 1.754626 -2.056227 0.637061
H 4.260036 -2.383881 0.788361
C -0.188492 1.843083 0.098576
N -0.214018 3.073880 0.212014
H -0.390570 3.711784 -0.571544
O -0.223644 -2.020205 -0.288399
H 0.334595 -2.267987 -1.049732
