57

Ir -1.101053 -0.103586 -0.072185
P 1.245241 0.038489 0.009928
C 1.946822 -1.866115 -1.929199
C 2.115322 -1.485154 -0.578993
C 1.949830 0.316304 1.694998
C 1.132786 0.050253 2.811741
C 1.638424 0.217987 4.110321
C 2.958332 0.656596 4.300875
C 3.773593 0.931915 3.189539
C 3.272543 0.765447 1.890017
C 2.042236 1.379351 -0.995733
C 1.432146 2.652462 -1.018947
C 2.027387 3.704106 -1.731643
C 3.227777 3.500552 -2.432141
C 3.838595 2.237096 -2.411340
C 3.252105 1.180756 -1.695247
C 2.854524 -2.319342 0.280925
C 3.418668 -3.512907 -0.201751
C 3.257982 -3.879952 -1.546036
C 2.521888 -3.050255 -2.410715
H 1.357896 -1.225336 -2.605031
H 0.092548 -0.272214 2.640566
H 0.992178 0.015290 4.978140
H 3.352310 0.794484 5.319808
H 4.805608 1.286598 3.335900
H 3.910289 0.994785 1.022228
H 0.494941 2.822423 -0.466648
H 1.543361 4.692960 -1.738098
H 3.688375 4.327660 -2.994450
H 4.781210 2.068294 -2.955032
H 3.741544 0.195310 -1.685438
H 2.989323 -2.037114 1.335868
H 3.991431 -4.158217 0.482163
H 3.706169 -4.812324 -1.922704
H 2.394919 -3.328909 -3.468711
C -3.144081 -0.041369 -0.109362
C -5.293686 0.793132 -0.503431
C -5.397131 -0.462210 0.378444
H -5.515782 1.726651 0.064614
H -5.843850 -1.328647 -0.164281
C -3.615200 -1.791927 1.597645
H -3.898815 -2.791524 1.197482
H -2.516273 -1.755943 1.727829
H -4.107619 -1.651175 2.583058
C -3.338739 1.817960 -1.744317
H -3.347103 2.802390 -1.226749
H -2.286760 1.560109 -1.975881
H -3.924024 1.887853 -2.684905
N -3.882630 0.775666 -0.899632
N -3.991444 -0.731206 0.692549
H -5.990820 -0.300103 1.301649
H -5.963118 0.764929 -1.387721
C -1.063461 -1.869494 -0.738313
N -1.090115 -3.055691 -1.002237
H -0.808005 -3.612012 -1.807316
C -1.262231 1.751683 0.801052
N -1.438104 2.821419 1.273991
