28

Ir -0.286425 0.049206 -0.023939
N -2.403875 0.008926 0.017531
C -4.678218 -0.678074 0.018281
O -4.519590 0.757825 0.253470
C -3.207905 1.001333 0.232606
C -3.235407 -1.203717 -0.151934
H -3.030351 -1.648054 -1.145293
H -2.932036 -1.957440 0.599729
H -5.312873 -0.800184 -0.881773
H -5.210578 -1.101232 0.893263
H -2.890062 2.041284 0.397673
P 1.930677 -0.022392 0.008342
C 5.068454 -0.104518 0.085723
C 4.360148 -1.318521 0.003587
C 2.965203 -1.417894 -0.038442
C 3.036293 1.316817 0.107407
C 4.425874 1.145958 0.135780
H 6.168192 -0.134980 0.113834
H 4.940848 -2.256206 -0.029805
H 2.463199 -2.395581 -0.099587
H 2.602044 2.327403 0.158132
H 5.054099 2.050521 0.203854
C -0.278130 1.937395 -0.137442
N -0.291817 3.157918 -0.156070
H -0.225360 3.817958 -0.933495
C -0.309596 -1.994875 -0.013252
C -0.337508 -3.235526 -0.010137
H -0.361209 -4.317198 -0.009441
