31

Ir 0.252864 0.135553 -0.000215
P 2.554153 -0.115813 -0.000054
C 3.185149 -1.069386 -1.442809
C 3.184900 -1.068650 1.443287
C 3.580362 1.413549 -0.000445
H 2.671459 -2.050531 -1.453569
H 4.283003 -1.213703 -1.378916
H 2.931014 -0.530052 -2.375535
H 2.671271 -2.049829 1.454343
H 2.930410 -0.528950 2.375706
H 4.282780 -1.212902 1.379770
H 3.335694 2.015044 -0.897457
H 4.662402 1.171450 -0.000186
H 3.335438 2.015791 0.895993
As -2.181713 -0.045744 -0.000112
C -2.897907 -1.049931 1.518820
C -2.898567 -1.052320 -1.517137
C -3.267010 1.585528 -0.001162
H -2.397759 -2.037335 1.524932
H -3.994954 -1.171362 1.427123
H -2.650753 -0.514469 2.454851
H -2.398480 -2.039760 -1.521864
H -2.651797 -0.518393 -2.454144
H -3.995576 -1.173509 -1.424712
H -3.015982 2.181670 0.896920
H -4.346967 1.340486 -0.000166
H -3.017227 2.179726 -0.900879
C 0.286248 2.009499 0.000197
O 0.307180 3.180086 0.000848
C 0.188547 -1.910144 0.000319
N 0.135995 -3.091968 0.000800
