27

Ir 0.117992 0.106893 0.015257
N -1.910826 0.053235 0.016099
C -2.607950 -0.868639 -0.710916
C -4.006711 -0.891200 -0.695386
N -4.756536 -0.031453 0.014482
C -4.061439 0.870296 0.728403
C -2.664938 0.928453 0.743673
H -2.011741 -1.591729 -1.283684
H -4.535880 -1.649917 -1.297873
H -4.636107 1.594193 1.332460
H -2.120322 1.674644 1.337259
N 2.187580 0.102622 0.015227
C 4.336665 0.674695 0.377996
C 3.025530 1.056661 0.573336
N 4.275774 -0.523432 -0.308897
C 2.971717 -0.843269 -0.516489
H 5.070374 -1.088779 -0.607723
H 5.282568 1.141254 0.667712
H 2.622984 1.942715 1.072543
H 2.605127 -1.757989 -0.995280
C 0.105740 1.947267 -0.019062
N 0.098359 3.160511 0.056692
C 0.074402 4.377937 -0.683999
H 0.965752 4.996170 -0.445107
H -0.818408 4.980185 -0.412384
H 0.055475 4.201166 -1.781901
Br 0.175321 -2.443321 0.111389
