56

Ir 1.266267 -0.079302 -0.047463
P -1.070248 -0.118909 -0.017331
C -1.702652 2.383633 -1.127720
C -1.861645 1.554373 0.005342
C -1.792005 -0.953740 1.464191
C -0.975873 -1.115388 2.601839
C -1.495594 -1.710764 3.761711
C -2.827736 -2.153136 3.790198
C -3.641594 -2.002128 2.654437
C -3.127474 -1.406000 1.493336
C -1.918642 -0.955863 -1.436899
C -1.344029 -2.130120 -1.969273
C -1.985760 -2.815143 -3.011984
C -3.196902 -2.337696 -3.539028
C -3.772180 -1.170438 -3.012905
C -3.139352 -0.482115 -1.965293
C -2.530276 2.060097 1.136692
C -3.037734 3.371052 1.133543
C -2.890169 4.185149 0.000263
C -2.222557 3.685638 -1.133227
H -1.166621 2.001488 -2.010908
H 0.074248 -0.781923 2.551040
H -0.850674 -1.840374 4.644381
H -3.232407 -2.627349 4.697827
H -4.683211 -2.358517 2.669869
H -3.765251 -1.301437 0.602023
H -0.397923 -2.513525 -1.557437
H -1.528753 -3.731418 -3.416313
H -3.693395 -2.875710 -4.361473
H -4.722405 -0.789440 -3.418406
H -3.600526 0.431717 -1.561400
H -2.655875 1.425815 2.027100
H -3.558733 3.754020 2.024697
H -3.297173 5.208147 -0.003601
H -2.105061 4.316063 -2.028528
P 3.576947 -0.300338 -0.096682
C 4.182507 -1.324282 -1.502847
C 4.281231 -1.159095 1.373018
C 4.586862 1.238560 -0.218861
H 3.687814 -2.312717 -1.431853
H 5.284841 -1.443219 -1.470008
H 3.882910 -0.847667 -2.456036
H 3.784783 -2.146187 1.451881
H 4.049075 -0.573367 2.283349
H 5.378805 -1.288095 1.277879
H 4.303118 1.784588 -1.139444
H 5.671326 1.008423 -0.242470
H 4.364670 1.887890 0.650123
C 1.318572 1.834988 -0.062493
N 1.364802 3.029858 -0.034852
C 1.193169 4.413026 0.151740
H 1.501688 4.720978 1.174661
H 0.124779 4.688493 0.013827
H 1.799229 4.993003 -0.576647
C 1.318454 -2.111457 0.089827
N 1.454622 -3.285523 0.165861
