57

Ir -1.043098 -0.252569 0.073259
P 1.315029 -0.036026 0.024309
C 1.549656 -2.150332 -1.790522
C 2.198212 -1.470040 -0.738130
C 2.112826 0.150657 1.681768
C 1.488631 -0.442073 2.799166
C 2.082266 -0.357279 4.067714
C 3.297183 0.327389 4.234499
C 3.918469 0.928505 3.127529
C 3.331436 0.841459 1.855338
C 1.944466 1.415638 -0.918860
C 1.664681 2.705937 -0.417358
C 2.023069 3.842700 -1.153767
C 2.672078 3.704381 -2.392279
C 2.963026 2.424786 -2.889267
C 2.597311 1.281453 -2.159520
C 3.484503 -1.882645 -0.336508
C 4.113318 -2.957739 -0.983817
C 3.468043 -3.624462 -2.038137
C 2.185540 -3.218191 -2.441275
H 0.534752 -1.833803 -2.082041
H 0.525022 -0.957804 2.663972
H 1.587085 -0.823341 4.933508
H 3.758435 0.399112 5.231666
H 4.867155 1.472760 3.254191
H 3.817177 1.322331 0.992287
H 1.151386 2.819335 0.548762
H 1.775895 4.841443 -0.764048
H 2.947721 4.598121 -2.972922
H 3.475204 2.310580 -3.857163
H 2.819534 0.281443 -2.561180
H 3.995502 -1.368308 0.491260
H 5.115164 -3.278403 -0.658820
H 3.963829 -4.468299 -2.542431
H 1.671836 -3.742095 -3.262023
C -3.092711 -0.289968 0.105285
C -5.321334 -0.792925 -0.421348
C -5.288588 0.349392 0.608731
H -5.925814 -0.553326 -1.320419
H -5.925088 0.156807 1.496934
C -3.394194 1.329864 1.973128
H -3.937024 1.171966 2.929033
H -2.312003 1.154394 2.123990
H -3.538816 2.383110 1.646005
C -3.474979 -1.870281 -1.782971
H -3.985622 -1.650084 -2.744189
H -2.381818 -1.753448 -1.913757
H -3.696862 -2.923065 -1.496350
N -3.903184 -0.941673 -0.762598
N -3.869254 0.398224 0.973885
H -5.602317 1.325487 0.171120
H -5.715438 -1.743824 0.007707
C -0.929213 -2.026747 0.532876
O -0.883414 -3.168363 0.810990
N -1.247391 1.699125 -0.466667
C -1.450270 2.833554 -0.819926
O -1.630781 3.973263 -1.154384
