31

Ir 0.023644 0.064058 -0.033289
C -1.969997 0.012368 -0.009531
C -4.149712 0.367082 0.552227
C -4.129943 -0.527392 -0.485863
H -4.985838 0.795370 1.112850
H -4.946002 -1.038935 -1.004942
C -2.319934 -1.624029 -1.862958
H -1.571310 -1.094674 -2.482884
H -1.820713 -2.499054 -1.403356
H -3.176139 -1.940229 -2.487456
C -2.396297 1.613349 1.864089
H -1.362811 1.345677 2.153689
H -2.393055 2.654399 1.482688
H -3.069912 1.535502 2.738853
N -2.827305 0.682274 0.831467
N -2.798269 -0.726152 -0.819094
N 2.172716 0.013011 -0.007939
C 4.992707 -0.042318 0.055449
C 4.307831 0.804693 -0.828724
C 2.909950 0.804289 -0.829070
C 2.837702 -0.809713 0.844487
C 4.234533 -0.861373 0.903886
H 6.092808 -0.062682 0.081576
H 4.846276 1.468316 -1.520905
H 2.339212 1.461534 -1.499930
H 2.199044 -1.460638 1.460868
H 4.714343 -1.547448 1.617077
C -0.016383 1.838995 -0.450910
N -0.065302 3.060050 -0.607882
H -0.101015 3.534808 -1.514729
Cl 0.014054 -2.279081 0.560913
