37

Ir 0.255863 0.000835 -0.055358
P -2.004865 -0.153019 0.065553
C -2.763908 0.958444 1.347275
C -2.650982 -1.836275 0.511811
C -2.358131 -2.930648 -0.518837
C -2.971213 0.267686 -1.470075
C -2.640536 1.629510 -2.083061
C -2.203593 0.733781 2.753721
H -2.540399 1.992635 1.010188
H -3.867793 0.828053 1.313758
H -2.162102 -2.086339 1.476074
H -3.740501 -1.727589 0.711251
H -2.745747 -0.541899 -2.194895
H -4.051416 0.184039 -1.217011
H -1.263691 -3.005553 -0.669559
H -2.736113 -3.909231 -0.157640
H -2.848407 -2.731001 -1.493664
H -2.838571 2.464116 -1.379911
H -1.569966 1.678217 -2.365792
H -3.248516 1.808990 -2.993320
H -2.453609 -0.273913 3.143895
H -1.098308 0.826741 2.746517
H -2.613291 1.478539 3.466215
N 2.367350 -0.012466 -0.077517
C 4.582785 -0.819848 0.066070
O 4.512314 0.638675 0.173175
C 3.207722 0.943499 0.149020
C 3.151221 -1.245765 -0.311350
H 2.720321 -2.068067 0.288991
H 3.040495 -1.532712 -1.377548
H 4.910454 -1.207116 1.053797
H 5.350505 -1.067667 -0.691400
H 2.929604 1.994756 0.316968
C 0.153841 1.813669 -0.120392
N 0.139259 3.046838 -0.027414
H 0.055312 3.668750 -0.838348
F 0.495032 -1.997450 0.059416
