26

Ir 0.101425 0.037134 -0.007622
N -1.940670 0.004754 0.003737
C -2.637508 -1.068225 -0.475379
C -4.036268 -1.079494 -0.479725
N -4.790018 -0.065848 -0.022895
C -4.097985 0.983193 0.451956
C -2.701586 1.036563 0.474461
H -2.040001 -1.916214 -0.835554
H -4.561764 -1.963942 -0.879888
H -4.673897 1.840015 0.842995
H -2.168710 1.910002 0.872306
N 2.157594 -0.051501 -0.028741
C 4.467496 0.476498 0.145915
O 4.229632 -0.925320 -0.182580
C 2.906818 -1.095749 -0.223049
C 3.058629 1.107556 0.165638
H 2.891863 1.838387 -0.651453
H 2.813838 1.610020 1.121436
H 5.140774 0.896564 -0.626333
H 4.982072 0.507034 1.127541
H 2.514855 -2.108432 -0.398191
C 0.136594 1.906137 -0.200054
O 0.176141 3.074928 -0.291162
C 0.105321 -1.985745 0.273857
C 0.121829 -3.214008 0.451654
H 0.116651 -4.281816 0.627587
