33

Ir -0.180602 -0.153442 0.018767
P 1.722539 -1.387105 0.060395
C 2.812957 -1.030608 1.504056
C 2.851277 -1.103824 -1.370359
C 1.549878 -3.222614 0.102096
H 3.101627 0.038684 1.473848
H 3.726099 -1.659741 1.476898
H 2.252377 -1.220316 2.439361
H 3.155102 -0.038322 -1.380766
H 2.311436 -1.327288 -2.310430
H 3.754428 -1.743100 -1.293322
H 0.946377 -3.511634 0.984170
H 2.542618 -3.713245 0.150612
H 1.017023 -3.557187 -0.809232
N -1.831204 1.172394 0.007880
C -4.004654 2.123432 0.127691
O -2.958897 3.125304 -0.049394
C -1.796376 2.463820 -0.080175
C -3.249203 0.774015 0.105990
H -3.507218 0.136368 -0.763814
H -3.400163 0.165400 1.019182
H -4.734684 2.246481 -0.696344
H -4.512102 2.334421 1.090730
H -0.871297 3.050866 -0.177285
C -1.244533 -1.667907 0.080549
N -1.930367 -2.662550 0.198494
C -2.546473 -3.773422 -0.438895
H -3.553508 -3.964645 -0.012238
H -1.946821 -4.696665 -0.280311
H -2.656462 -3.620596 -1.535985
N 1.048203 1.490370 -0.063116
C 2.051901 2.153747 -0.088782
S 3.409972 3.024899 -0.124171
