37

Ir 0.159149 0.019268 -0.009625
P -2.111898 -0.158411 0.018100
C -2.918071 0.750790 1.422786
C -2.716904 -1.901575 0.213297
C -2.439956 -2.817086 -0.982497
C -3.040191 0.448488 -1.474415
C -2.831537 1.922351 -1.826415
C -2.401896 0.317854 2.797399
H -2.698375 1.825372 1.248436
H -4.019189 0.622192 1.333445
H -2.194350 -2.289847 1.110951
H -3.802261 -1.841876 0.450944
H -2.706887 -0.197885 -2.312544
H -4.115199 0.221059 -1.298478
H -1.349622 -2.858800 -1.166846
H -2.796344 -3.845006 -0.765982
H -2.957098 -2.478400 -1.903207
H -3.139616 2.599729 -1.004448
H -1.768503 2.136129 -2.050647
H -3.429139 2.194283 -2.720201
H -2.661798 -0.736344 3.022928
H -1.296943 0.406605 2.841894
H -2.837282 0.947944 3.599389
N 2.309797 -0.035541 -0.017691
C 5.117756 -0.213218 -0.043959
C 4.321627 -1.367688 -0.039182
C 2.928909 -1.244587 -0.025965
C 3.078779 1.083152 -0.022706
C 4.475727 1.034025 -0.035319
H 6.216127 -0.282525 -0.054523
H 4.770082 -2.371915 -0.045750
H 2.233957 -2.101459 -0.019163
H 2.543894 2.043642 -0.016583
H 5.046165 1.974115 -0.038441
C 0.048654 1.826540 -0.018790
O -0.017162 3.006115 0.000497
F 0.290860 -1.989880 0.065876
