30

Ir -0.312352 0.174340 -0.033944
P -2.664576 0.088307 -0.009517
C -3.319509 -0.176361 1.685105
C -3.401457 -1.279533 -0.993407
C -3.532749 1.591473 -0.619768
H -2.837924 -1.098918 2.063829
H -4.423458 -0.282464 1.679116
H -3.022233 0.674373 2.327882
H -3.037172 -2.238565 -0.577965
H -3.072884 -1.196206 -2.047030
H -4.508360 -1.241806 -0.939968
H -3.214537 2.469286 -0.024627
H -4.631939 1.470762 -0.541018
H -3.255005 1.770121 -1.676749
P 1.983948 0.072564 -0.001364
C 5.112050 -0.046113 0.080067
C 4.397615 -1.239574 -0.135590
C 3.001668 -1.321087 -0.196885
C 3.095415 1.384773 0.242082
C 4.483825 1.200041 0.256143
H 6.211394 -0.089116 0.109065
H 4.971598 -2.172000 -0.269273
H 2.490632 -2.277857 -0.385444
H 2.672414 2.391482 0.386932
H 5.120610 2.086419 0.415501
C -0.299108 2.029818 -0.109571
O -0.304514 3.199372 -0.140735
N -0.402486 -1.948849 0.076715
O 0.186896 -2.632369 -0.773579
O -1.083846 -2.482181 0.973138
