35

Ir 0.028977 0.051656 -0.026888
As -2.409773 -0.064185 0.023221
C -3.269523 1.209944 1.247746
C -3.354431 -1.719982 0.496096
C -3.300486 0.401518 -1.665010
H -2.943244 0.982660 2.280526
H -4.373980 1.157425 1.178066
H -2.921858 2.227509 0.984785
H -3.071929 -2.022011 1.522616
H -3.063738 -2.522883 -0.207872
H -4.448311 -1.554997 0.444169
H -2.941354 1.400486 -1.979244
H -4.402399 0.413412 -1.551481
H -3.006803 -0.335977 -2.436074
C 2.067940 0.086617 -0.038820
C 4.275824 -0.440290 -0.617762
C 4.284943 0.482804 0.614798
H 4.591245 -1.480613 -0.370429
H 4.691822 1.495812 0.386609
C 2.400570 1.286147 2.113441
H 2.717091 2.353279 2.083310
H 1.293454 1.229968 2.123064
H 2.801932 0.823129 3.040232
C 2.396651 -1.176891 -2.152367
H 2.524171 -2.271081 -1.996132
H 1.315927 -0.966835 -2.274957
H 2.951582 -0.871026 -3.064526
N 2.863763 -0.425448 -1.008749
N 2.861092 0.572609 0.945773
H 4.868519 0.070326 1.463996
H 4.925928 -0.077232 -1.440842
C -0.114130 1.780643 -0.657685
O -0.225052 2.884074 -1.055178
S 0.379236 -2.174896 0.815806
H -0.882252 -2.678184 0.905008
