33

Ir -0.151028 -0.379799 -0.049297
C 1.841337 -0.569918 -0.027075
C 3.958412 -1.155316 0.578325
C 4.056207 -0.269221 -0.461314
H 4.731986 -1.668252 1.157512
H 4.931957 0.149640 -0.965778
C 2.437012 1.010070 -1.889714
H 1.376714 0.864214 -2.165673
H 2.574441 2.056790 -1.549002
H 3.084769 0.809361 -2.765085
C 2.063868 -2.193082 1.869717
H 1.099056 -1.771705 2.208101
H 1.878009 -3.212813 1.477151
H 2.774652 -2.240223 2.716304
N 2.605164 -1.325249 0.832627
N 2.760904 0.071632 -0.822530
N -2.274957 -0.046846 0.000171
C -5.058894 0.421606 0.096049
C -4.542163 -0.744666 -0.487628
C -3.158872 -0.941707 -0.514892
C -2.779904 1.080997 0.567598
C -4.151343 1.345624 0.632781
H -6.143458 0.604161 0.133013
H -5.201802 -1.508875 -0.923833
H -2.723473 -1.851039 -0.951958
H -2.031995 1.784027 0.961617
H -4.493364 2.277871 1.105301
C -0.318093 -2.181772 -0.361184
N -0.401069 -3.402672 -0.479937
H -0.399962 -3.931122 -1.356673
N 0.127439 1.633910 0.232781
C 0.622313 2.729553 0.272386
S 1.289375 4.198376 0.295174
