36

Ir 0.026533 -0.010141 0.020287
C -1.974349 -0.042597 0.017130
C -4.133926 -0.287180 0.690588
C -4.155074 0.032167 -0.642690
H -4.950435 -0.496397 1.388329
H -4.991865 0.157991 -1.336182
C -2.390691 0.487105 -2.385373
H -2.750652 1.489369 -2.695582
H -1.281876 0.472132 -2.372702
H -2.762611 -0.274376 -3.099574
C -2.309918 -0.668227 2.404093
H -1.629287 -1.537302 2.307766
H -1.750781 0.186311 2.831654
H -3.171273 -0.916481 3.051860
N -2.802234 -0.325264 1.074058
N -2.831816 0.176269 -1.035888
N 2.156028 -0.123290 0.041703
C 4.969463 -0.273470 0.041655
C 4.294982 0.599916 0.908866
C 2.898250 0.645559 0.881329
C 2.808060 -0.969366 -0.798362
C 4.203607 -1.070730 -0.820974
H 6.068563 -0.331741 0.041046
H 4.841440 1.246545 1.610889
H 2.330346 1.315850 1.542642
H 2.154069 -1.595365 -1.429450
H 4.676136 -1.777182 -1.518921
C 0.063967 1.855631 0.136499
N 0.089222 3.055766 0.280262
C 0.173152 4.371933 -0.239304
H 1.027331 4.918976 0.213676
H -0.745893 4.948194 0.001229
H 0.307280 4.376902 -1.344107
N -0.067517 -2.133452 -0.148259
O 0.385678 -2.699075 -1.165459
O -0.623738 -2.805575 0.740642
