25

Ir -0.109690 0.094207 -0.003474
N -2.165112 0.036494 0.007997
C -4.423465 -0.698304 -0.063610
O -4.308025 0.756821 -0.015544
C -3.000934 1.030904 -0.012215
C -2.973649 -1.209021 0.060440
H -2.657847 -1.888246 -0.753211
H -2.753570 -1.734411 1.009994
H -4.905757 -0.961713 -1.027145
H -5.084948 -1.012385 0.767034
H -2.717719 2.092720 -0.027712
N 1.949482 0.025934 -0.016903
C 4.767313 -0.118825 -0.025283
C 3.992204 -1.074811 -0.696326
C 2.598269 -0.975424 -0.675164
C 2.703983 0.952602 0.637085
C 4.099670 0.912174 0.652650
H 5.866183 -0.174177 -0.030577
H 4.456310 -1.906191 -1.246201
H 1.951565 -1.713830 -1.167477
H 2.148714 1.742412 1.160730
H 4.649650 1.690865 1.200336
C -0.111023 1.899011 -0.224530
O -0.117703 3.071127 -0.349522
Cl -0.088555 -2.279964 0.320369
