45

Ir 0.296929 -0.008404 -0.007306
P -2.042816 -0.075470 0.069102
C -2.745329 1.089571 1.336687
C -2.824638 -1.700299 0.538654
C -2.916250 -2.757341 -0.566788
C -2.925772 0.410268 -1.494490
C -2.488987 1.762633 -2.062451
C -2.216491 0.824710 2.748581
H -2.456223 2.108892 1.004676
H -3.854870 1.028082 1.290296
H -2.201386 -2.082864 1.373345
H -3.832108 -1.464904 0.947067
H -2.701819 -0.397427 -2.221802
H -4.020615 0.379866 -1.298999
H -1.925026 -3.005428 -0.993504
H -3.337582 -3.694988 -0.150816
H -3.581889 -2.438730 -1.394624
H -2.705289 2.598491 -1.365410
H -1.398078 1.762541 -2.262225
H -3.016767 1.979300 -3.013535
H -2.524914 -0.171991 3.124366
H -1.107468 0.854518 2.755508
H -2.595073 1.583988 3.463114
P 2.619135 -0.162873 0.041948
C 3.226361 -1.206244 1.434300
C 3.586055 1.397449 0.213682
C 3.342834 -0.963911 -1.450659
H 2.976356 -0.704717 2.389290
H 4.320530 -1.378137 1.373366
H 2.681156 -2.170203 1.406884
H 3.262902 1.922725 1.133354
H 3.369745 2.051996 -0.653155
H 4.675248 1.195416 0.261502
H 2.796603 -1.912008 -1.624674
H 4.429191 -1.153590 -1.331728
H 3.167755 -0.309004 -2.326186
C 0.289608 1.861640 0.084628
N 0.286981 3.066042 0.190627
C 0.276751 4.363001 -0.383333
H -0.218101 5.090693 0.293094
H -0.260384 4.374711 -1.357812
H 1.313274 4.725632 -0.557406
N 0.331770 -2.117299 -0.183308
O 0.442992 -2.636098 -1.311678
O 0.217062 -2.823986 0.835267
