36

Ir 0.385930 -0.022191 0.023270
As -1.983771 -0.130697 0.021197
C -2.797767 -0.771781 1.682284
C -2.819687 -1.274918 -1.331819
C -2.937376 1.565570 -0.255463
H -2.375553 -1.776730 1.865067
H -3.900560 -0.815926 1.586124
H -2.511710 -0.091109 2.506259
H -2.424557 -2.297011 -1.185018
H -2.537589 -0.907735 -2.336577
H -3.921293 -1.262960 -1.216726
H -2.648631 2.275553 0.542766
H -4.032047 1.399931 -0.230968
H -2.646004 1.989751 -1.235404
N 2.629984 -0.069191 0.110618
C 3.193640 1.218745 0.574389
C 3.069483 -1.134788 1.048342
C 3.133351 -0.366722 -1.254629
H 2.637022 -0.942524 2.048035
H 4.181816 -1.144296 1.122306
H 2.721718 -2.113432 0.676070
H 2.817272 0.440580 -1.941240
H 2.689607 -1.325217 -1.582796
H 4.246966 -0.436019 -1.249618
H 2.789809 1.463588 1.574077
H 2.913253 2.025900 -0.125733
H 4.305263 1.154922 0.629087
C 0.298310 1.844630 0.066781
N 0.184576 3.044179 0.109190
C 0.014485 4.365293 -0.357606
H 0.473644 5.096827 0.340545
H -1.065884 4.617753 -0.440131
H 0.476569 4.510113 -1.359632
N 0.332058 -2.143137 -0.171715
O 1.181636 -2.764652 -0.843592
O -0.605915 -2.777774 0.362576
