33

Ir 0.316693 -0.116480 0.049744
P 2.651674 -0.194525 -0.026975
C 3.338461 -1.259863 -1.363724
C 3.403921 -0.887816 1.503613
C 3.535421 1.405899 -0.260316
H 2.899139 -2.272464 -1.266498
H 4.444193 -1.319610 -1.301121
H 3.037635 -0.844729 -2.344790
H 2.957418 -1.889129 1.663397
H 3.128817 -0.244854 2.361943
H 4.507821 -0.960221 1.421210
H 3.226885 1.851637 -1.225859
H 4.634505 1.260353 -0.252406
H 3.244080 2.101100 0.550684
P -1.951176 -0.154337 0.043228
C -5.097305 -0.183149 -0.064603
C -4.394209 -1.295237 -0.563266
C -2.997950 -1.401300 -0.573399
C -3.060619 1.079136 0.571321
C -4.450811 0.945326 0.473512
H -6.197226 -0.193823 -0.101365
H -4.977405 -2.134494 -0.979258
H -2.506958 -2.292770 -0.994424
H -2.622356 1.990679 1.007805
H -5.077387 1.775362 0.842368
C 0.321394 1.757266 0.064496
N 0.329978 2.965020 0.165071
C 0.240103 4.207462 -0.524969
H 1.208589 4.749510 -0.474459
H -0.522027 4.861092 -0.051253
H -0.030538 4.073274 -1.595702
S 0.448268 -2.525506 0.082440
H -0.760602 -2.862383 0.615156
