54

Ir 1.149332 -0.103085 -0.023525
P -1.124718 -0.137155 -0.007650
C -1.830526 2.303989 -1.224259
C -1.925326 1.535074 -0.042924
C -1.869372 -0.920386 1.494649
C -1.073724 -1.037663 2.651933
C -1.614820 -1.583208 3.826419
C -2.948943 -2.019516 3.851455
C -3.742726 -1.912391 2.696910
C -3.206894 -1.366324 1.521056
C -1.972314 -1.009180 -1.411396
C -1.372947 -2.160868 -1.964127
C -2.016986 -2.864165 -2.993453
C -3.257101 -2.428165 -3.487167
C -3.858834 -1.283780 -2.940769
C -3.222634 -0.577555 -1.907410
C -2.548203 2.092522 1.089815
C -3.074694 3.395122 1.041194
C -2.991716 4.148802 -0.139434
C -2.368561 3.598012 -1.274386
H -1.334151 1.880202 -2.111518
H -0.021994 -0.710184 2.606014
H -0.984449 -1.678533 4.723854
H -3.370514 -2.454556 4.770953
H -4.785877 -2.264428 2.708808
H -3.830846 -1.298000 0.616935
H -0.406942 -2.514851 -1.574291
H -1.539376 -3.763161 -3.412526
H -3.755773 -2.980418 -4.298810
H -4.831869 -0.934323 -3.319719
H -3.705289 0.319074 -1.490328
H -2.624343 1.504569 2.016915
H -3.560521 3.818583 1.933878
H -3.414999 5.164432 -0.179053
H -2.302763 4.180400 -2.206789
N 3.283714 -0.214526 -0.045293
C 6.097604 -0.376924 -0.100062
C 5.305744 -1.373540 -0.686892
C 3.911997 -1.264851 -0.636619
C 4.053067 0.748672 0.525145
C 5.450092 0.701696 0.520545
H 7.196045 -0.440702 -0.121268
H 5.754841 -2.247245 -1.180723
H 3.255847 -2.043296 -1.050242
H 3.510764 1.580525 0.995401
H 6.016901 1.510554 1.004009
C 1.192401 1.808977 -0.167111
N 1.237521 3.003523 -0.206864
C 1.065666 4.398884 -0.198687
H 1.410314 4.839759 0.761837
H -0.009036 4.650983 -0.330217
H 1.640135 4.877354 -1.020687
C 1.144917 -2.123239 0.219075
N 1.209492 -3.300692 0.323974
