28

Ir 0.088890 0.100678 0.002142
N -1.944815 0.036814 0.032941
C -2.645217 -0.883366 -0.691813
C -4.043778 -0.911731 -0.660864
N -4.787866 -0.059929 0.064322
C -4.089124 0.839659 0.776906
C -2.692522 0.903818 0.775481
H -2.052099 -1.601275 -1.274509
H -4.577372 -1.668045 -1.262330
H -4.660159 1.556044 1.393179
H -2.143534 1.647966 1.367717
N 2.139337 0.088742 -0.017005
C 4.422699 0.572420 0.417193
O 4.243986 -0.602827 -0.429128
C 2.928365 -0.765365 -0.594123
C 2.985580 1.061437 0.707212
H 2.778641 2.083229 0.330827
H 2.719981 1.041747 1.782569
H 5.040686 1.300878 -0.144744
H 4.978009 0.253613 1.321564
H 2.583610 -1.628493 -1.181127
C 0.055090 1.944679 -0.041885
N 0.015752 3.157636 0.015586
C -0.084000 4.371606 -0.723367
H 0.747695 5.058558 -0.459352
H -1.029447 4.899508 -0.475768
H -0.060416 4.197245 -1.821631
Br 0.168531 -2.440924 0.092353
