56

Ir 1.273590 0.158966 -0.034639
P -1.042718 0.108289 -0.010556
C -1.009230 -1.559439 2.237090
C -1.773894 -1.162400 1.119458
C -1.895494 -0.214052 -1.622319
C -1.286416 -1.098492 -2.537766
C -1.920786 -1.400010 -3.752291
C -3.158347 -0.816499 -4.070901
C -3.765267 0.069204 -3.166288
C -3.139659 0.368712 -1.945218
C -1.802117 1.694569 0.547599
C -1.564097 2.847920 -0.237277
C -2.052855 4.096152 0.177804
C -2.774345 4.209653 1.378000
C -3.006532 3.068934 2.162803
C -2.521980 1.816210 1.752778
C -3.044568 -1.735225 0.909146
C -3.544303 -2.689828 1.809151
C -2.782701 -3.077285 2.924231
C -1.515543 -2.509458 3.137474
H -0.005566 -1.120732 2.369102
H -0.311146 -1.545381 -2.292140
H -1.437736 -2.091420 -4.459959
H -3.648862 -1.048506 -5.028987
H -4.733111 0.533615 -3.411393
H -3.619947 1.066606 -1.242242
H -0.995092 2.763313 -1.176228
H -1.863993 4.987226 -0.440439
H -3.154320 5.190473 1.702769
H -3.571392 3.152069 3.104213
H -2.706445 0.925723 2.372559
H -3.642638 -1.442580 0.032610
H -4.535037 -3.137508 1.634839
H -3.176607 -3.828637 3.626229
H -0.912386 -2.813909 4.006976
P 3.587232 0.401121 -0.079352
C 4.236866 1.144034 1.471985
C 4.100482 1.610843 -1.365638
C 4.632731 -1.084260 -0.375042
H 3.609528 2.040638 1.647747
H 5.309049 1.416954 1.392518
H 4.085086 0.436329 2.309687
H 3.485704 2.514892 -1.184408
H 3.850513 1.208396 -2.366078
H 5.182028 1.850739 -1.308897
H 4.448725 -1.819496 0.432419
H 5.710615 -0.825841 -0.403907
H 4.332254 -1.549165 -1.334066
C 1.296436 -1.674835 -0.293672
N 1.281919 -2.879500 -0.508048
C 1.202216 -4.092190 0.249848
H 1.981120 -4.812142 -0.079753
H 0.217832 -4.582187 0.087906
H 1.319952 -3.921400 1.343678
O 1.439350 2.160725 0.322178
H 0.595978 2.567538 0.594279
