34

Ir -0.060138 0.000466 0.039578
N -2.221402 -0.049887 0.041072
C -5.033603 -0.217823 0.038673
C -4.243399 -1.324328 0.383638
C -2.849818 -1.207152 0.375408
C -2.985211 1.023158 -0.286542
C -4.382832 0.977743 -0.300439
H -6.132401 -0.284044 0.036169
H -4.698366 -2.286424 0.662138
H -2.160689 -2.025491 0.653170
H -2.438691 1.942747 -0.543327
H -4.947434 1.881004 -0.574448
C 1.914527 -0.117575 0.046216
C 4.068065 -0.874198 -0.513221
C 4.193373 0.327976 0.430403
H 4.685262 -1.743549 -0.204226
H 4.874301 1.116898 0.047435
C 2.500353 1.933949 1.355970
H 2.891405 2.877724 0.919970
H 1.401753 2.007735 1.453585
H 2.946712 1.799879 2.367945
C 2.094325 -2.239026 -1.265133
H 2.687708 -3.164056 -1.108379
H 1.047328 -2.418203 -0.953306
H 2.125395 -1.980446 -2.348868
N 2.638894 -1.175976 -0.442791
N 2.813017 0.801884 0.512368
H 4.558855 0.034120 1.444069
H 4.353644 -0.614624 -1.561314
C -0.001053 1.680682 -0.691801
N 0.033611 2.858511 -1.070353
H 0.118495 3.108132 -2.062808
O -0.222868 -1.867831 0.842628
H 0.603095 -2.166757 1.262540
