28

Ir -0.145767 -0.314143 -0.027894
P -2.424647 -0.210608 -0.016517
C -3.138816 0.800685 -1.379046
C -3.139322 0.537540 1.506711
C -3.327882 -1.810436 -0.162040
H -2.691847 1.811868 -1.318825
H -4.243264 0.858352 -1.296728
H -2.856179 0.347496 -2.348756
H -2.695331 1.544422 1.628724
H -2.853509 -0.080960 2.379257
H -4.244132 0.605596 1.437713
H -3.039777 -2.310682 -1.106751
H -4.423976 -1.645690 -0.148793
H -3.042836 -2.471881 0.678773
N 1.998386 -0.231531 -0.029407
C 4.806385 -0.102301 -0.014783
C 4.050509 0.769989 -0.810147
C 2.654187 0.680146 -0.789993
C 2.729309 -1.076976 0.739113
C 4.126657 -1.041315 0.775271
H 5.905796 -0.052158 -0.009949
H 4.530287 1.525984 -1.448264
H 2.018050 1.359911 -1.374938
H 2.156442 -1.798834 1.338782
H 4.667324 -1.748380 1.420674
C -0.166483 -2.129191 -0.182514
O -0.193556 -3.301851 -0.273373
Br -0.160023 2.219136 0.196060
