35

Ir 0.068370 -0.084701 -0.021284
N 2.191675 -0.181602 0.011734
C 2.853350 -1.092658 0.773653
C 4.253110 -1.141382 0.787201
N 5.027482 -0.314088 0.065753
C 4.363443 0.577613 -0.688772
C 2.966891 0.656685 -0.726545
H 2.223157 -1.797359 1.338086
H 4.761710 -1.890495 1.418988
H 4.963717 1.271806 -1.302920
H 2.443710 1.399371 -1.345811
C -1.925092 -0.127446 -0.025842
C -4.162386 0.209575 0.593716
C -4.099856 -0.816086 -0.549278
H -4.752941 -0.142382 1.464713
H -4.790934 -0.583774 -1.385625
C -2.202825 -1.521882 -2.067294
H -2.844354 -1.374930 -2.961255
H -1.168170 -1.197346 -2.289755
H -2.173502 -2.601398 -1.802552
C -2.337276 1.180598 2.055551
H -2.813000 0.822831 2.993396
H -1.236525 1.098157 2.147679
H -2.614187 2.250735 1.908607
N -2.749357 0.366479 0.937941
N -2.701385 -0.720654 -0.970259
H -4.324259 -1.850726 -0.197604
H -4.592768 1.185678 0.264538
C 0.077732 1.723950 -0.369800
N 0.088126 2.902887 -0.669314
C 0.034795 4.229560 -0.152990
H -0.750542 4.819630 -0.671664
H 0.998402 4.755646 -0.324542
H -0.178427 4.249573 0.939385
Cl -0.020158 -2.443254 0.472742
