28

Ir 0.000001 -0.112795 0.023415
N -2.043268 -0.168711 -0.000532
C -2.704329 -1.211298 -0.577632
C -4.103755 -1.251040 -0.595129
N -4.877328 -0.293257 -0.058959
C -4.215297 0.724997 0.514162
C -2.819402 0.803391 0.553433
H -2.079112 -2.013442 -0.993175
H -4.611254 -2.106499 -1.073450
H -4.815802 1.529179 0.974017
H -2.296019 1.642895 1.029837
N 2.043015 -0.169919 0.001901
C 2.819647 0.800426 0.557895
C 4.215618 0.722483 0.516286
N 4.876887 -0.293790 -0.060879
C 4.102751 -1.250469 -0.598437
C 2.703398 -1.211172 -0.578775
H 2.296509 1.638188 1.037673
H 4.816618 1.525425 0.977679
H 4.609918 -2.104451 -1.079711
H 2.077586 -2.012244 -0.995447
C 0.000688 1.717239 -0.272091
N 0.000830 2.895852 -0.532638
C 0.001732 4.281651 -0.250228
H -0.890665 4.772252 -0.694204
H 0.895858 4.770682 -0.692461
H 0.000747 4.486126 0.844064
Cl -0.000688 -2.470081 0.459006
