29

Ir -0.332506 -0.231406 -0.031359
N 1.693363 -0.247047 -0.045113
C 2.383080 0.699399 -0.744920
C 3.782240 0.724641 -0.733525
N 4.532366 -0.162447 -0.060783
C 3.843985 -1.093861 0.619357
C 2.447034 -1.151009 0.643651
H 1.785198 1.428377 -1.306230
H 4.308734 1.506265 -1.307989
H 4.422502 -1.843461 1.186617
H 1.908991 -1.918947 1.214800
N -2.509252 -0.022344 -0.045103
C -2.924196 0.667357 1.208054
C -2.892781 0.807645 -1.220933
C -3.230907 -1.319018 -0.129597
H -2.363391 1.774853 -1.166071
H -3.994006 0.971127 -1.228454
H -2.588712 0.285270 -2.146632
H -2.975549 -1.946613 0.743086
H -2.934392 -1.851019 -1.051465
H -4.329631 -1.142695 -0.144210
H -2.408991 1.641254 1.272689
H -2.630936 0.049281 2.076402
H -4.027478 0.818027 1.211758
C -0.386777 -2.059635 -0.023550
O -0.386597 -3.235282 0.022086
N -0.259170 1.807745 0.045284
C 0.017021 2.959852 0.296595
O 0.261258 4.110655 0.516609
