31

Ir 0.000047 0.087054 -0.011114
N 2.176700 -0.013288 -0.001290
C 2.838565 1.315547 -0.030237
C 2.608738 -0.718555 1.238420
C 2.630006 -0.781569 -1.194818
H 2.270461 -0.138051 2.116183
H 3.718962 -0.812724 1.254753
H 2.137611 -1.717374 1.263640
H 2.303037 -0.250081 -2.107374
H 2.162277 -1.782032 -1.175414
H 3.740609 -0.871296 -1.189322
H 2.521362 1.912705 0.842675
H 2.547242 1.854338 -0.949420
H 3.944327 1.186604 -0.013370
N -2.176714 -0.013227 -0.001234
C -2.838536 1.315628 -0.030397
C -2.629874 -0.781506 -1.194846
C -2.609033 -0.718372 1.238406
H -2.302618 -0.250129 -2.107362
H -3.740503 -0.871035 -1.189605
H -2.162368 -1.782062 -1.175276
H -2.270971 -0.137788 2.116206
H -2.137865 -1.717169 1.263838
H -3.719250 -0.812555 1.254476
H -2.547092 1.854310 -0.949601
H -2.521433 1.912874 0.842489
H -3.944301 1.186700 -0.013660
C 0.000057 1.897640 -0.000925
N 0.000051 3.124438 0.140421
H -0.000225 3.800060 -0.629442
Cl -0.000158 -2.360398 0.016616
