25

Ir -0.039037 0.033276 0.018642
N -2.078603 -0.117156 -0.026805
C -4.289083 0.274668 -0.199725
C -3.036892 0.850944 -0.282027
N -4.070253 -1.054898 0.108789
C -2.728555 -1.265277 0.210132
H -4.787368 -1.765004 0.253278
H -5.291839 0.690621 -0.334666
H -2.749138 1.883840 -0.501010
H -2.213408 -2.208657 0.429683
N 1.983988 -0.051379 0.044285
C 4.129834 -1.015075 -0.068594
O 4.172290 0.437881 -0.228001
C 2.886982 0.834402 -0.248209
C 2.701281 -1.299755 0.409982
H 2.624343 -1.427235 1.510592
H 2.170940 -2.150873 -0.061765
H 4.922909 -1.304565 0.646327
H 4.352861 -1.464173 -1.060983
H 2.678689 1.885097 -0.494051
C -0.044062 1.853038 0.181416
N -0.005747 3.088598 0.122457
H -0.168110 3.694503 0.933256
O -0.005379 -2.017810 -0.201645
H -0.392060 -2.210181 -1.077877
