36

Ir -0.098316 -0.115875 -0.113736
P 2.186936 -0.127301 -0.092183
C 5.307569 -0.445090 -0.004992
C 4.759681 0.847035 0.092100
C 3.385308 1.121803 0.064999
C 3.118905 -1.591702 -0.188768
C 4.515873 -1.603251 -0.139906
H 6.402361 -0.555468 0.025368
H 5.455063 1.697805 0.193884
H 3.028440 2.161322 0.141147
H 2.526075 -2.513915 -0.293320
H 5.030213 -2.577189 -0.209887
C -2.136993 -0.342735 -0.058498
C -4.233038 -1.087349 0.681733
C -4.435849 -0.076869 -0.457997
H -4.769213 -2.045727 0.520348
H -5.126707 0.750613 -0.192326
C -2.829397 1.370805 -1.744464
H -3.265867 2.362839 -1.499266
H -1.738077 1.477598 -1.882335
H -3.279562 1.015740 -2.699139
C -2.154974 -2.233651 1.570773
H -2.719327 -3.188730 1.539497
H -1.124390 -2.416036 1.208998
H -2.148692 -1.861642 2.620109
N -2.781671 -1.284787 0.671028
N -3.074646 0.417596 -0.685750
H -4.827155 -0.554478 -1.387082
H -4.557428 -0.683523 1.669546
C -0.201010 1.698129 0.178842
N -0.258791 2.907896 0.296924
C -0.269336 3.967597 1.249712
H -1.200351 4.567557 1.158269
H 0.578398 4.663517 1.070847
H -0.197485 3.596736 2.296561
F 0.060593 -2.122047 -0.397492
