57

Ir 1.280845 -0.182497 -0.003685
P -1.056181 -0.130889 -0.006790
C -1.103828 1.715454 -2.106498
C -1.712391 1.369792 -0.879255
C -1.819756 -0.022125 1.676631
C -1.038001 0.477021 2.738863
C -1.591543 0.605763 4.022098
C -2.924389 0.230538 4.257353
C -3.704257 -0.277611 3.205029
C -3.156206 -0.405654 1.919105
C -2.009584 -1.511019 -0.776743
C -1.850780 -2.802832 -0.228369
C -2.554366 -3.887405 -0.769869
C -3.411584 -3.700531 -1.867405
C -3.565570 -2.420125 -2.420619
C -2.869852 -1.327138 -1.877580
C -2.741629 2.183758 -0.368331
C -3.158721 3.324585 -1.075704
C -2.559830 3.656422 -2.301169
C -1.532224 2.846522 -2.817100
H -0.273608 1.095128 -2.482778
H 0.013722 0.742123 2.541931
H -0.972918 0.992313 4.846841
H -3.355253 0.325271 5.266255
H -4.746697 -0.582058 3.386902
H -3.767118 -0.814538 1.099323
H -1.164857 -2.957576 0.616782
H -2.423014 -4.890449 -0.335396
H -3.959045 -4.555756 -2.293135
H -4.235689 -2.265195 -3.280438
H -3.003243 -0.325916 -2.313445
H -3.216312 1.932674 0.592080
H -3.959420 3.957890 -0.663057
H -2.890668 4.549188 -2.854276
H -1.054629 3.102546 -3.775656
P 3.589967 -0.341181 0.013215
C 4.316775 -1.070442 -1.514295
C 4.256888 -1.419614 1.349573
C 4.541373 1.226844 0.223048
H 3.833301 -2.054640 -1.669768
H 5.416677 -1.185345 -1.426981
H 4.072991 -0.420184 -2.376512
H 3.777821 -2.412027 1.239556
H 3.968773 -0.998067 2.331914
H 5.360667 -1.510875 1.286596
H 4.289804 1.914752 -0.607479
H 5.634511 1.040336 0.232223
H 4.237361 1.709564 1.172051
C 1.263992 1.722539 0.170324
N 1.229714 2.919118 0.288203
C 0.917230 4.254572 -0.051220
H 0.609824 4.831057 0.847111
H 0.084167 4.288445 -0.787617
H 1.797810 4.769620 -0.492788
C 1.362206 -2.197488 -0.275247
C 1.499866 -3.420387 -0.451573
H 1.562259 -4.487418 -0.616560
