76

Ir 0.001243 -0.038925 0.025368
P 2.340120 -0.037378 0.035856
C 2.966196 2.563912 0.918379
C 3.084302 1.648741 -0.151039
C 3.124058 -0.985560 -1.341792
C 2.411668 -1.092038 -2.554486
C 2.988789 -1.741477 -3.655442
C 4.272540 -2.301846 -3.549911
C 4.978542 -2.209876 -2.339525
C 4.409287 -1.552141 -1.237603
C 3.153516 -0.665339 1.575395
C 2.489411 -1.639242 2.349924
C 3.095572 -2.148168 3.508783
C 4.361361 -1.690141 3.908566
C 5.025598 -0.718566 3.142380
C 4.426482 -0.206542 1.980790
C 3.677248 2.074180 -1.355880
C 4.145097 3.392486 -1.488971
C 4.029755 4.295931 -0.421328
C 3.440981 3.876119 0.784761
H 2.495560 2.245103 1.861125
H 1.392219 -0.677726 -2.611079
H 2.424374 -1.824205 -4.596949
H 4.720713 -2.821183 -4.411193
H 5.979985 -2.658212 -2.248306
H 4.965615 -1.491600 -0.290191
H 1.500769 -2.002034 2.026796
H 2.568902 -2.908830 4.105495
H 4.831272 -2.088426 4.821276
H 6.017439 -0.352897 3.450501
H 4.950222 0.561912 1.391843
H 3.775579 1.371182 -2.196639
H 4.608725 3.711305 -2.435349
H 4.401871 5.326877 -0.525621
H 3.347665 4.577423 1.628483
P -2.344474 -0.002671 0.027790
C -2.296424 0.704293 2.750148
C -3.088186 0.171312 1.711912
C -3.283703 -1.416657 -0.690490
C -3.252049 -2.653968 -0.009050
C -3.927363 -3.763828 -0.535411
C -4.626694 -3.657660 -1.748953
C -4.652530 -2.433152 -2.433957
C -3.984763 -1.315012 -1.908362
C -2.997352 1.459719 -0.907249
C -2.351830 1.795203 -2.117854
C -2.794789 2.887692 -2.878602
C -3.875239 3.667056 -2.429793
C -4.511591 3.344909 -1.220803
C -4.079205 2.243626 -0.462993
C -4.425950 -0.194265 1.976928
C -4.963913 -0.017578 3.261106
C -4.173386 0.522199 4.289420
C -2.840473 0.881116 4.031683
H -1.245749 0.960952 2.540090
H -2.695825 -2.746675 0.934715
H -3.896264 -4.723123 0.003454
H -5.151782 -4.532801 -2.161999
H -5.200316 -2.341597 -3.384569
H -4.017243 -0.357998 -2.449758
H -1.482000 1.199904 -2.441130
H -2.287203 3.136590 -3.823510
H -4.217627 4.530173 -3.021447
H -5.352990 3.956489 -0.859854
H -4.581874 2.002625 0.485558
H -5.045372 -0.628768 1.177175
H -6.006984 -0.308461 3.460295
H -4.596420 0.655164 5.297258
H -2.213449 1.293634 4.837088
C -0.062479 1.807339 0.171071
N -0.136117 3.002863 0.321586
C -0.183742 4.310923 -0.225249
H 0.844943 4.674807 -0.439922
H -0.652690 5.018175 0.489534
H -0.774320 4.327948 -1.167691
Br 0.093208 -2.570572 -0.250961
