41

Ir 0.160948 -0.168214 0.005997
P -2.100614 -0.323526 0.041430
C -2.903524 0.621473 1.426496
C -2.753629 -2.048999 0.259549
C -2.478177 -2.993856 -0.913727
C -3.024375 0.277072 -1.460003
C -2.729698 1.720545 -1.870111
C -2.400826 0.207745 2.811737
H -2.662086 1.688420 1.235601
H -4.006044 0.508216 1.334019
H -2.256122 -2.431204 1.174372
H -3.840871 -1.962542 0.480893
H -2.740550 -0.416606 -2.278211
H -4.108757 0.121712 -1.265095
H -1.386367 -3.049477 -1.087682
H -2.850485 -4.012644 -0.680644
H -2.983347 -2.666651 -1.845433
H -2.990467 2.444400 -1.070877
H -1.653752 1.848077 -2.102151
H -3.312463 1.999062 -2.771888
H -2.674439 -0.839081 3.055280
H -1.295310 0.285083 2.859753
H -2.832829 0.857382 3.600175
N 2.306755 -0.196804 0.008169
C 5.115552 -0.339741 -0.029405
C 4.332089 -1.469434 -0.307460
C 2.937902 -1.365139 -0.278242
C 3.062351 0.896435 0.281900
C 4.460004 0.863407 0.273117
H 6.214717 -0.394945 -0.045984
H 4.791999 -2.439321 -0.547403
H 2.250758 -2.209179 -0.458324
H 2.509399 1.818896 0.512407
H 5.021652 1.780197 0.504623
C 0.049611 1.653274 0.100523
N -0.002900 2.864102 0.274474
C -0.115580 4.075532 -0.475565
H 0.479015 4.885094 -0.003135
H -1.171746 4.424477 -0.502357
H 0.229529 3.959151 -1.527555
F 0.327513 -2.183795 -0.060545
