30

Ir 0.312558 0.166630 -0.018156
N -1.715319 0.117532 -0.048828
C -2.395141 -0.862201 -0.709317
C -3.793318 -0.910438 -0.686172
N -4.551752 -0.021682 -0.025305
C -3.873142 0.938299 0.623980
C -2.477349 1.025163 0.624591
H -1.801868 -1.596496 -1.268441
H -4.311542 -1.714503 -1.236553
H -4.459279 1.687141 1.184559
H -1.944085 1.819025 1.163767
N 2.500468 0.078846 0.050486
C 2.939063 -0.843691 1.137445
C 2.976653 -0.443987 -1.261069
C 3.123219 1.402893 0.304133
H 2.495026 -1.425132 -1.433384
H 4.085809 -0.550419 -1.249990
H 2.679728 0.260633 -2.059686
H 2.750282 1.812184 1.260734
H 2.859677 2.103805 -0.507277
H 4.230443 1.298950 0.350272
H 2.593905 -1.866761 0.913279
H 2.508536 -0.506336 2.098399
H 4.050108 -0.840745 1.207037
C 0.275916 2.009892 -0.218134
N 0.151128 3.223339 -0.256743
H 0.191090 3.892758 -1.026453
N 0.235573 -1.958060 0.177658
O 0.976221 -2.717199 -0.488198
O -0.600083 -2.430298 0.966716
