43

Ir 0.159793 0.001605 -0.007618
P -2.111489 -0.055214 0.052021
C -2.833188 0.829430 1.520726
C -2.886920 -1.743255 0.153685
C -2.917351 -2.524084 -1.164176
C -3.020873 0.714366 -1.381270
C -2.671862 2.172675 -1.679758
C -2.335761 0.280772 2.860132
H -2.535182 1.893085 1.408373
H -3.941577 0.784799 1.440201
H -2.291244 -2.288501 0.913395
H -3.911288 -1.613668 0.566415
H -2.779215 0.079026 -2.258105
H -4.108726 0.590500 -1.182762
H -1.930487 -2.504703 -1.666565
H -3.168509 -3.587247 -0.977584
H -3.672144 -2.119305 -1.868036
H -2.886188 2.840370 -0.820291
H -1.596467 2.274362 -1.926522
H -3.259433 2.545863 -2.543383
H -2.647084 -0.772174 3.017104
H -1.227860 0.312682 2.901738
H -2.736330 0.876765 3.705500
N 2.305444 0.004237 -0.023418
C 5.119182 -0.023747 -0.024089
C 4.389238 -1.026056 0.630316
C 2.990880 -0.981875 0.607698
C 3.011841 0.973839 -0.656051
C 4.409712 0.993366 -0.680579
H 6.219684 -0.034405 -0.023773
H 4.891866 -1.848046 1.160300
H 2.371966 -1.754799 1.084552
H 2.416127 1.751698 -1.154416
H 4.929015 1.802224 -1.214718
C 0.095662 1.840920 0.195055
N 0.070948 3.031431 0.443391
C -0.016841 4.344521 -0.096390
H 0.784560 4.993186 0.316494
H -0.985949 4.815385 0.177592
H 0.064703 4.354033 -1.206837
N 0.298789 -2.029326 -0.153253
C 0.225182 -3.232631 -0.221060
O 0.161044 -4.430041 -0.286861
