38

Ir 0.200474 0.156786 0.051289
P 2.509270 -0.202463 0.007898
C 3.151076 -0.945123 -1.554462
C 3.113377 -1.381113 1.292572
C 3.608050 1.264684 0.247119
H 2.571123 -1.870812 -1.740367
H 4.234397 -1.174230 -1.487904
H 2.966053 -0.243517 -2.390974
H 2.537675 -2.320250 1.172609
H 2.896032 -0.963252 2.294784
H 4.200464 -1.579144 1.194495
H 3.418285 1.993064 -0.565621
H 4.679589 0.979225 0.243488
H 3.354929 1.751732 1.209052
C -1.844957 0.223180 0.071622
C -4.041278 -0.306372 0.689814
C -4.070745 0.493343 -0.624556
H -4.302454 -1.379496 0.534869
H -4.502836 1.513827 -0.493660
C -2.199422 1.171999 -2.197739
H -2.529113 2.232930 -2.285235
H -1.091605 1.126961 -2.205777
H -2.595807 0.608659 -3.069795
C -2.155122 -0.825942 2.297182
H -2.226299 -1.934014 2.225111
H -1.087093 -0.556914 2.418698
H -2.737638 -0.476272 3.175666
N -2.637681 -0.188121 1.092593
N -2.648293 0.582776 -0.959866
H -4.643322 -0.012688 -1.429634
H -4.722177 0.100211 1.466247
C 0.392092 1.963691 0.350988
N 0.533407 3.139509 0.624789
C 0.720241 4.448397 0.100963
H 1.780184 4.767909 0.210292
H 0.102107 5.186774 0.654225
H 0.453431 4.513899 -0.978168
Br -0.074382 -2.362280 -0.387536
