35

Ir -0.234114 -0.151684 -0.005980
P -2.496501 -0.454829 -0.009541
C -3.144314 -1.337770 1.480987
C -3.100020 -1.520328 -1.395040
C -3.587587 1.026430 -0.119395
H -2.553377 -2.264215 1.622011
H -4.221214 -1.588124 1.387693
H -2.980472 -0.698890 2.370284
H -2.511876 -2.459272 -1.391345
H -2.898853 -1.002566 -2.352780
H -4.181808 -1.751824 -1.308880
H -3.399813 1.673093 0.759543
H -4.658682 0.741660 -0.152458
H -3.319222 1.599739 -1.027731
As 2.205691 -0.158718 -0.006891
C 2.933762 -1.235102 -1.471092
C 2.942806 -1.092085 1.547041
C 3.241989 1.502743 -0.095981
H 2.391892 -2.199162 -1.420774
H 4.025661 -1.388965 -1.365015
H 2.706381 -0.741572 -2.434841
H 2.369152 -2.037313 1.607338
H 2.751663 -0.493013 2.457394
H 4.027169 -1.287992 1.434996
H 2.926460 2.067104 -0.994368
H 4.329106 1.296341 -0.140310
H 3.012252 2.111447 0.799562
C -0.394413 1.678706 -0.204851
N -0.499811 2.878877 -0.422330
C -0.605786 4.089007 0.334158
H -1.573915 4.595105 0.126570
H 0.193413 4.803899 0.041947
H -0.533588 3.919831 1.432847
O 0.150553 -2.156564 0.204736
H -0.638194 -2.724722 0.242706
