27

Ir -0.272949 0.188113 0.018373
N -2.389089 0.133473 -0.055959
C -4.660266 -0.565906 -0.152230
O -4.512889 0.890536 -0.112798
C -3.207450 1.139081 -0.049298
C -3.211577 -1.099057 -0.139676
H -2.932809 -1.654754 -1.057149
H -2.972592 -1.746866 0.724841
H -5.229094 -0.818598 -1.068329
H -5.253480 -0.862502 0.735327
H -2.909053 2.196563 0.001813
P 1.964039 0.068438 -0.003215
C 5.086169 -0.099788 -0.058376
C 4.342527 -1.277007 -0.265213
C 2.944416 -1.339470 -0.269605
C 3.100828 1.361355 0.215370
C 4.485020 1.151670 0.166265
H 6.184714 -0.160508 -0.076712
H 4.894218 -2.215857 -0.441264
H 2.413950 -2.285524 -0.456764
H 2.702144 2.371442 0.397812
H 5.141386 2.025571 0.314794
C -0.202224 2.042326 -0.043668
O -0.146951 3.211459 -0.062930
N -0.346067 -1.929177 0.172301
O 0.092773 -2.654631 -0.733628
O -0.858115 -2.406055 1.199771
