28

Ir -0.001908 0.036642 -0.003654
N -2.049096 -0.079478 -0.014230
C -4.146521 -0.853263 0.267194
C -2.811279 -1.130888 0.476122
N -4.183377 0.380139 -0.354069
C -2.904597 0.821686 -0.513373
H -5.019573 0.878827 -0.656258
H -5.051413 -1.420241 0.504126
H -2.330963 -2.003536 0.926696
H -2.622608 1.774536 -0.971630
N 2.049417 0.030029 -0.018296
C 4.207638 0.587315 -0.360461
C 2.901683 1.007421 -0.511826
N 4.132400 -0.657488 0.233158
C 2.821810 -0.967864 0.430873
H 4.918949 -1.256521 0.482228
H 5.158958 1.058117 -0.624534
H 2.509624 1.935105 -0.938603
H 2.447277 -1.897446 0.869018
C -0.059636 1.870126 -0.073056
N -0.112912 3.085921 -0.212532
C -0.113503 4.270112 0.590496
H -0.980116 4.916705 0.334116
H 0.799748 4.874005 0.397225
H -0.155815 4.047980 1.680237
N 0.064226 -2.015106 0.089915
C 0.103197 -3.213865 -0.051947
O 0.146940 -4.410220 -0.164129
