26

Ir 0.172538 -0.497987 0.051887
N 2.279497 -0.671788 0.041385
C 4.585719 -0.284006 0.388519
O 4.332053 -1.266014 -0.668629
C 3.005261 -1.338861 -0.796051
C 3.195444 -0.015136 0.999385
H 2.935973 1.060366 1.068548
H 3.051460 -0.473402 1.999789
H 5.030497 0.610078 -0.094824
H 5.320013 -0.723899 1.089600
H 2.611655 -1.970700 -1.605485
P -2.048416 -0.285511 0.026424
C -5.180876 -0.097152 -0.014516
C -4.435668 1.062936 0.266822
C -3.037575 1.112840 0.316992
C -3.194319 -1.555753 -0.282840
C -4.578066 -1.340773 -0.275986
H -6.279071 -0.028222 -0.031360
H -4.985768 1.999188 0.461742
H -2.513406 2.056113 0.534936
H -2.790543 -2.556804 -0.500423
H -5.233462 -2.201794 -0.491140
C 0.010301 -2.326148 0.155463
N -0.063141 -3.545804 0.097926
H -0.142508 -4.211980 0.870272
I 0.529126 2.215327 -0.148418
