45

Ir -0.396314 0.129040 0.048544
P 1.033063 -1.737206 0.021299
C 1.955697 -2.066165 1.603093
C 2.391345 -1.582234 -1.236777
C 1.882168 -1.319984 -2.655880
C 0.294671 -3.401057 -0.380117
C -0.559432 -4.028108 0.725703
C 2.733596 -0.870627 2.158063
H 1.186480 -2.393867 2.333295
H 2.621394 -2.939159 1.419403
H 3.034331 -0.742039 -0.901401
H 3.006120 -2.507444 -1.181331
H -0.309812 -3.239010 -1.297036
H 1.132058 -4.076222 -0.662236
H 1.259705 -0.402645 -2.678978
H 2.730767 -1.179619 -3.355694
H 1.264777 -2.157452 -3.041616
H 0.049918 -4.309124 1.607825
H -1.355850 -3.339124 1.069377
H -1.047541 -4.954667 0.359315
H 3.512945 -0.504104 1.460239
H 2.055559 -0.018521 2.360314
H 3.237117 -1.147796 3.106581
P -1.572541 2.135777 0.094934
C -1.157971 3.171543 1.561526
C -3.413910 2.071836 0.113436
C -1.191359 3.252389 -1.320581
H -1.458699 2.633959 2.481440
H -1.660916 4.159431 1.521020
H -0.058987 3.307385 1.581660
H -3.745850 1.474412 0.984599
H -3.766737 1.564642 -0.805599
H -3.853391 3.088293 0.167048
H -0.093490 3.393160 -1.358299
H -1.695727 4.234587 -1.214286
H -1.511195 2.766606 -2.262667
C -1.947095 -0.891477 0.038083
N -2.973313 -1.535555 0.075345
C -3.986029 -2.249714 -0.617740
H -4.994543 -1.927138 -0.282567
H -3.907003 -3.339006 -0.409937
H -3.922369 -2.102799 -1.719133
N 1.297929 1.273195 -0.030594
C 2.396452 1.748346 -0.131440
S 3.889888 2.348167 -0.263761
