49

Ir 0.109037 -0.091144 -0.017543
P -2.220800 -0.289118 0.089203
C -2.977911 0.761618 1.430994
C -2.936515 -1.968038 0.454556
C -2.842039 -2.970573 -0.698096
C -3.212947 0.225176 -1.407912
C -2.934565 1.637082 -1.925152
C -2.413795 0.452144 2.819901
H -2.747766 1.811860 1.151897
H -4.083831 0.645191 1.399511
H -2.353029 -2.342294 1.320880
H -3.989317 -1.825883 0.784726
H -2.968609 -0.518832 -2.194125
H -4.289502 0.090576 -1.160352
H -1.793880 -3.065172 -1.044198
H -3.173490 -3.974935 -0.362533
H -3.480975 -2.683860 -1.558298
H -3.157565 2.412321 -1.163123
H -1.869713 1.744589 -2.212503
H -3.557244 1.860235 -2.816023
H -2.664515 -0.577490 3.147040
H -1.307278 0.535209 2.810685
H -2.815217 1.152399 3.581256
C 2.151934 -0.068208 -0.043479
C 4.384432 0.252513 0.607866
C 4.341984 -0.657111 -0.631545
H 4.807237 1.260495 0.381284
H 4.595633 -1.715238 -0.384857
C 2.443715 -1.292537 -2.179967
H 2.529842 -2.391164 -2.025850
H 1.369928 -1.046179 -2.299446
H 3.006611 -1.003685 -3.093061
C 2.530878 1.055705 2.140859
H 2.801995 2.135885 2.106403
H 1.428141 0.958742 2.197949
H 2.989089 0.605865 3.047592
N 2.966473 0.360338 0.954072
N 2.937665 -0.561184 -1.035001
H 5.022938 -0.325530 -1.442880
H 4.972958 -0.177379 1.445059
C -0.026103 1.796846 -0.214662
N -0.086623 3.005198 -0.206932
C -0.242732 4.261702 -0.838598
H -0.251891 5.085667 -0.094300
H -1.198608 4.309151 -1.407351
H 0.586799 4.462903 -1.552596
C 0.347208 -2.090600 0.341559
C 0.562964 -3.289615 0.586519
H 0.725792 -4.335648 0.807989
