40

Ir 0.061723 0.073867 0.008619
P -2.233138 -0.194057 0.007485
C -3.092119 0.550585 1.477486
C -2.737148 -1.980124 0.061960
C -2.348782 -2.778092 -1.186192
C -3.196939 0.468735 -1.440276
C -3.227940 1.993355 -1.569582
C -2.538067 0.044650 2.811844
H -2.937128 1.646335 1.385728
H -4.184959 0.364968 1.383029
H -2.218666 -2.402013 0.946996
H -3.831950 -2.012869 0.258327
H -2.723188 0.014329 -2.335033
H -4.225346 0.048903 -1.370193
H -1.249074 -2.747127 -1.309000
H -2.656440 -3.838177 -1.075152
H -2.833586 -2.389277 -2.104886
H -3.765831 2.468488 -0.723870
H -2.208235 2.424685 -1.600166
H -3.754771 2.290602 -2.499333
H -2.735435 -1.036767 2.957515
H -1.438515 0.190426 2.851492
H -2.997348 0.585151 3.664616
As 2.498739 -0.048368 -0.024543
C 3.129777 -1.048298 -1.584699
C 3.205623 -1.139817 1.437689
C 3.631972 1.550330 -0.012897
H 2.533044 -1.980258 -1.603095
H 4.211353 -1.276416 -1.513799
H 2.919168 -0.465378 -2.501134
H 2.591962 -2.060955 1.436515
H 3.058934 -0.607569 2.396493
H 4.277249 -1.377412 1.290458
H 3.323905 2.206196 -0.849526
H 4.702136 1.283966 -0.112834
H 3.468946 2.094691 0.937002
C -0.044749 1.890134 -0.025657
N -0.079189 3.116951 -0.155101
H -0.116665 3.783086 0.621717
F 0.326775 -1.946195 0.085527
