30

Ir -0.150312 -0.156358 -0.038138
N -2.216149 -0.200938 -0.050773
C -4.386253 0.386083 -0.249553
C -3.086868 0.840954 -0.339420
N -4.288845 -0.947869 0.097531
C -2.973357 -1.274579 0.211692
H -5.065431 -1.592822 0.240722
H -5.346127 0.887661 -0.402989
H -2.713360 1.837163 -0.591935
H -2.572138 -2.266755 0.449234
N 1.897212 -0.196624 -0.046458
C 4.730243 -0.270022 -0.055944
C 4.027325 0.712421 -0.770254
C 2.631313 0.718957 -0.744844
C 2.585084 -1.154268 0.643480
C 3.980658 -1.215721 0.659090
H 5.830119 -0.298271 -0.058808
H 4.551818 1.480736 -1.357037
H 2.051668 1.472754 -1.293913
H 1.962842 -1.889491 1.171023
H 4.467965 -2.014139 1.237646
C -0.144781 1.740877 0.019275
N -0.129964 2.953025 0.021777
C -0.076495 4.178464 0.736447
H 0.848881 4.739365 0.483790
H -0.095030 4.019451 1.837651
H -0.934258 4.830346 0.465040
C -0.154573 -2.201033 -0.018934
C -0.152879 -3.444401 0.007977
H -0.125230 -4.526005 0.007611
