53

Ir 1.064682 0.024886 0.022694
P -1.263939 0.058465 0.009788
C -1.741145 -2.266539 1.487337
C -2.052710 -1.587792 0.288731
C -1.975664 0.626621 -1.596270
C -1.223013 0.392394 -2.765865
C -1.734242 0.765656 -4.017968
C -2.992003 1.384449 -4.109734
C -3.738739 1.630304 -2.945454
C -3.234715 1.253471 -1.690738
C -2.097333 1.130157 1.266118
C -1.496135 2.366684 1.588178
C -2.123129 3.222402 2.506616
C -3.338306 2.856892 3.110283
C -3.933027 1.625235 2.792901
C -3.317167 0.761425 1.872611
C -2.906955 -2.197649 -0.648440
C -3.445276 -3.469923 -0.388918
C -3.141179 -4.136418 0.807241
C -2.288874 -3.529820 1.747250
H -1.057342 -1.796740 2.212562
H -0.227141 -0.071404 -2.668677
H -1.141414 0.580751 -4.927098
H -3.389225 1.684239 -5.092011
H -4.720553 2.124100 -3.013080
H -3.819685 1.454192 -0.779989
H -0.532236 2.624491 1.108287
H -1.652751 4.186220 2.757485
H -3.822405 3.531842 3.833444
H -4.883423 1.330926 3.264873
H -3.786976 -0.204134 1.630540
H -3.151100 -1.679179 -1.587748
H -4.108453 -3.941136 -1.130731
H -3.566284 -5.131814 1.008745
H -2.046807 -4.047887 2.688404
As 3.483703 0.102439 0.062055
C 4.479399 -1.574305 0.226376
C 4.251367 1.182680 1.512753
C 4.312906 0.928955 -1.515036
H 4.244205 -2.025547 1.209000
H 5.569047 -1.397862 0.141136
H 4.134206 -2.266347 -0.564735
H 4.010202 0.694074 2.475840
H 3.769856 2.179463 1.502152
H 5.348289 1.289641 1.401528
H 4.100087 0.293450 -2.395558
H 5.406613 1.046526 -1.384035
H 3.839433 1.916483 -1.676825
C 1.105064 -1.815010 -0.005181
N 1.188502 -3.032880 -0.170926
H 1.071531 -3.715669 0.584897
O 1.002733 2.073756 -0.058169
H 1.872567 2.508543 -0.015353
