29

Ir -0.206602 -0.159423 -0.045609
As 2.188831 -0.070740 0.014248
C 2.931208 0.276816 1.788780
C 3.023510 1.318205 -1.081493
C 3.145241 -1.685104 -0.548033
H 2.460938 1.214697 2.137765
H 4.033076 0.378603 1.740223
H 2.651757 -0.553994 2.463741
H 2.630947 2.292781 -0.736451
H 2.743980 1.159287 -2.139957
H 4.124584 1.281876 -0.968377
H 2.819521 -2.537250 0.078184
H 4.238385 -1.540982 -0.446874
H 2.891832 -1.905289 -1.602523
N -2.302302 -0.062088 0.015205
C -4.582847 -0.515590 0.483386
O -4.399510 0.657177 -0.366632
C -3.084433 0.812465 -0.536579
C -3.152373 -1.065125 0.689810
H -2.988769 -2.057422 0.221152
H -2.860589 -1.145647 1.755155
H -5.263878 -1.212627 -0.042796
H -5.068701 -0.176639 1.420502
H -2.712257 1.686785 -1.094550
C -0.169457 -1.996051 -0.202199
O -0.111164 -3.162963 -0.315652
N -0.140397 1.973364 0.073292
O -0.893423 2.676833 -0.624539
O 0.705339 2.513105 0.816198
