34

Ir -0.067486 0.054604 -0.037730
N -2.219278 -0.032524 0.023905
C -5.041792 -0.147195 0.120673
C -4.270383 -1.317563 0.102076
C -2.875659 -1.223960 0.055137
C -2.972480 1.099780 0.045181
C -4.369405 1.083471 0.092624
H -6.140728 -0.192040 0.159012
H -4.736738 -2.313128 0.127679
H -2.236905 -2.119397 0.064615
H -2.416901 2.047734 0.018334
H -4.916678 2.037285 0.108644
C 1.926923 0.013971 -0.008515
C 4.114064 -0.767854 -0.313527
C 4.154163 0.507007 0.543796
H 4.338905 -1.683393 0.282773
H 4.591013 1.375166 -0.005446
C 2.306759 1.798371 1.694180
H 2.570277 2.801021 1.286779
H 1.206609 1.731041 1.800052
H 2.780577 1.686179 2.692421
C 2.249697 -1.847468 -1.633789
H 2.244868 -2.831562 -1.115532
H 1.209603 -1.612500 -1.930226
H 2.893670 -1.906767 -2.536299
N 2.721556 -0.792139 -0.763403
N 2.735295 0.737256 0.813715
H 4.727854 0.381972 1.485400
H 4.816401 -0.741330 -1.172150
C -0.058879 1.779557 -0.783963
N -0.032397 2.936847 -1.175632
H 0.004550 3.320011 -2.121805
C 0.020104 -1.859663 0.718722
N 0.103595 -2.977375 1.096474
