32

Ir 0.074303 -0.016959 -0.047465
N 2.208770 0.036513 -0.033183
C 2.855983 1.120640 -0.536684
C 4.254086 1.191362 -0.520566
N 5.038121 0.221023 -0.020597
C 4.386091 -0.843431 0.474745
C 2.990437 -0.950956 0.475427
H 2.187725 1.906089 -0.935809
H 4.755731 2.082646 -0.936483
H 4.993907 -1.663369 0.895922
H 2.481064 -1.835541 0.883723
C -1.915821 0.130720 -0.046360
C -4.201938 -0.302455 -0.391681
C -4.051087 0.893454 0.558737
H -4.604488 -0.006153 -1.389511
H -4.332483 0.635166 1.607131
C -2.049934 2.241241 1.289802
H -2.046084 1.978641 2.372158
H -1.015684 2.428472 0.941682
H -2.654097 3.162071 1.153281
C -2.526368 -1.901752 -1.375335
H -3.046942 -1.796815 -2.353665
H -1.435472 -1.935589 -1.553593
H -2.850474 -2.854356 -0.904237
N -2.821357 -0.768420 -0.526761
N -2.616770 1.177257 0.482196
H -4.655066 1.774473 0.257431
H -4.861671 -1.099612 0.010257
C -0.020601 -1.704184 0.656005
O -0.114980 -2.797745 1.089113
O 0.232223 1.859801 -0.824755
H -0.561655 2.120838 -1.324497
