25

Ir 0.333096 -0.070809 0.000111
N 2.462270 0.021129 0.000021
C 4.643172 -0.543965 -0.000491
C 3.356041 -1.038885 -0.000286
N 4.510295 0.831517 -0.000316
C 3.190505 1.145023 0.000032
H 5.271344 1.511578 -0.000221
H 5.615995 -1.043980 -0.000821
H 3.016756 -2.078943 -0.000381
H 2.776124 2.160657 0.000350
P -1.894149 0.017570 0.000030
C -5.021409 0.165900 -0.000315
C -4.408538 -1.100149 -0.000293
C -3.022638 -1.302936 -0.000148
C -2.890184 1.440106 -0.000027
C -4.287680 1.367288 -0.000177
H -6.120506 0.219290 -0.000448
H -5.057196 -1.992385 -0.000392
H -2.615335 -2.326055 -0.000142
H -2.371056 2.411139 0.000121
H -4.847240 2.317944 -0.000195
C 0.308901 -1.951863 0.000193
O 0.272922 -3.120040 0.000300
C 0.343710 1.973625 0.000178
N 0.404616 3.153775 0.000112
