32

Ir 0.177792 -0.024084 -0.018474
N -1.863591 -0.195278 -0.069032
C -4.033012 0.134480 -0.581345
C -2.746438 0.578237 -0.810294
N -3.911578 -0.915468 0.308623
C -2.596080 -1.089568 0.607339
H -4.672993 -1.481580 0.682033
H -4.998301 0.468631 -0.972476
H -2.390194 1.390825 -1.449642
H -2.156638 -1.872589 1.239991
N 2.366125 0.045990 -0.020159
C 2.930318 -0.931502 0.952555
C 2.824039 -0.308858 -1.392427
C 2.894339 1.387288 0.333350
H 2.405584 -1.300813 -1.646450
H 3.938550 -0.331171 -1.432070
H 2.440849 0.444660 -2.104654
H 2.540133 1.668565 1.342172
H 2.531510 2.135880 -0.392853
H 4.008207 1.374105 0.321573
H 2.662297 -1.955815 0.644468
H 2.514659 -0.726535 1.956312
H 4.040209 -0.839924 0.981254
C 0.001667 1.824629 -0.043195
N -0.170634 3.023177 -0.121953
C -0.461789 4.247977 0.536657
H -1.313474 4.764563 0.044965
H 0.407805 4.938267 0.484396
H -0.720715 4.096014 1.608074
N 0.284295 -2.155994 0.061693
O 0.990836 -2.775048 -0.764289
O -0.333091 -2.798918 0.937457
