30

Ir -0.006070 -0.090945 0.021102
P -2.257076 -0.260484 0.041078
C -2.908914 -1.257266 1.448871
C -2.964546 -1.117847 -1.430573
C -3.239837 1.298782 0.132953
H -2.392579 -2.236479 1.414552
H -4.007834 -1.393101 1.381967
H -2.645746 -0.754460 2.399372
H -2.449179 -2.094747 -1.511693
H -2.737556 -0.525062 -2.337631
H -4.060360 -1.260569 -1.334566
H -2.936941 1.866621 1.033907
H -4.326722 1.083786 0.172915
H -3.018977 1.918738 -0.757784
N 2.133979 -0.116725 0.026322
C 4.295305 0.492611 0.210961
C 2.990750 0.934144 0.305629
N 4.208460 -0.844456 -0.131108
C 2.895317 -1.181993 -0.235878
H 4.991462 -1.481070 -0.279539
H 5.252139 1.002438 0.357245
H 2.605792 1.927540 0.556294
H 2.495594 -2.176964 -0.471066
C -0.064459 1.736784 0.121603
N -0.097205 2.947940 0.265772
C -0.257578 4.161716 -0.467484
H 0.393019 4.959818 -0.052822
H -1.305490 4.528020 -0.391205
H -0.015095 4.040002 -1.546960
Cl 0.017009 -2.517847 -0.148080
