51

Ir -1.220501 -0.168548 -0.004120
P 1.052935 -0.061916 0.015735
C 1.186808 -1.365890 -2.463545
C 1.857552 -1.165986 -1.237636
C 1.875342 -0.540643 1.605041
C 1.250470 -1.485657 2.445090
C 1.876683 -1.897292 3.631431
C 3.124697 -1.365886 3.995320
C 3.748677 -0.419827 3.166217
C 3.129397 -0.008214 1.975497
C 1.774071 1.596581 -0.342905
C 1.571680 2.627141 0.600372
C 2.022387 3.926374 0.333969
C 2.690457 4.207127 -0.869739
C 2.904519 3.183686 -1.805192
C 2.444966 1.881275 -1.547686
C 3.105966 -1.783350 -1.024263
C 3.675809 -2.586722 -2.025094
C 3.008943 -2.775871 -3.246270
C 1.763800 -2.162554 -3.464305
H 0.200512 -0.895786 -2.611751
H 0.266965 -1.891460 2.165151
H 1.379893 -2.634867 4.280431
H 3.609967 -1.684960 4.930715
H 4.724164 0.005646 3.448394
H 3.620439 0.739237 1.333731
H 1.042813 2.413397 1.541480
H 1.832126 4.726914 1.063970
H 3.039149 5.229714 -1.080692
H 3.428886 3.397985 -2.749253
H 2.608381 1.086452 -2.290589
H 3.633653 -1.645038 -0.068719
H 4.648467 -3.070656 -1.846416
H 3.458910 -3.406406 -4.028748
H 1.235080 -2.308474 -4.419096
N -3.336532 -0.241807 0.013884
C -5.595422 -0.910003 0.290359
O -5.467227 0.424619 -0.288307
C -4.157163 0.664014 -0.409953
C -4.138619 -1.349428 0.567992
H -3.856502 -2.300940 0.075750
H -3.906776 -1.456583 1.647020
H -6.120066 -1.546947 -0.450501
H -6.223163 -0.825793 1.198911
H -3.846388 1.624171 -0.845436
C -1.092822 -2.001929 -0.081698
N -1.034565 -3.229081 -0.043785
H -0.826774 -3.841720 -0.838006
N -1.453323 1.858390 0.016094
C -1.402374 3.064103 0.072309
O -1.376419 4.262161 0.129513
