53

Ir 1.125505 -0.170506 -0.080902
P -1.227578 0.002449 0.021881
C -1.991769 -2.546663 -0.870980
C -2.168471 -1.159330 -1.067013
C -1.861916 1.660869 -0.481999
C -1.152190 2.359693 -1.480299
C -1.618508 3.599954 -1.939115
C -2.788265 4.157459 -1.396048
C -3.491656 3.469430 -0.394144
C -3.032838 2.223419 0.062324
C -2.002177 -0.279599 1.681787
C -1.337578 0.215362 2.824793
C -1.907816 0.046222 4.095292
C -3.136607 -0.619058 4.241141
C -3.800730 -1.111527 3.106735
C -3.239026 -0.942361 1.830629
C -3.023763 -0.713314 -2.093808
C -3.690271 -1.641460 -2.911321
C -3.514867 -3.018494 -2.707902
C -2.665081 -3.468840 -1.683206
H -1.321390 -2.906462 -0.075018
H -0.224519 1.918798 -1.879345
H -1.059121 4.140575 -2.718217
H -3.149253 5.135542 -1.750194
H -4.404157 3.906784 0.039791
H -3.584984 1.689145 0.850566
H -0.379009 0.746131 2.704159
H -1.383016 0.437461 4.980699
H -3.577743 -0.754388 5.240958
H -4.765069 -1.632541 3.212082
H -3.766804 -1.331720 0.947065
H -3.171229 0.364689 -2.256361
H -4.353708 -1.281045 -3.712696
H -4.038297 -3.743612 -3.349937
H -2.517846 -4.547434 -1.519957
C 3.172777 -0.121381 -0.050966
C 5.347354 -0.524208 0.475429
C 5.316418 0.560227 -0.363063
H 6.187538 -1.036494 0.953586
H 6.125086 1.183969 -0.755875
C 3.484357 1.876867 -1.503371
H 2.716188 1.481968 -2.194996
H 3.006125 2.640229 -0.858781
H 4.323413 2.313661 -2.076012
C 3.605868 -2.044782 1.479645
H 2.499880 -2.015683 1.531045
H 3.931653 -3.006334 1.033945
H 4.026872 -1.947605 2.499434
N 4.030340 -0.924812 0.653200
N 3.984554 0.784401 -0.677750
C 1.120665 -1.710201 -1.055037
O 1.163371 -2.702647 -1.684234
Cl 1.263204 1.901818 1.170823
