38

Ir 0.000556 -0.162259 -0.102821
C 2.058436 -0.248956 -0.104026
C 4.281990 0.270252 -0.251701
C 4.186854 -1.012238 0.221716
H 5.156601 0.887032 -0.479721
H 4.963467 -1.733935 0.493204
C 2.290181 -2.578293 0.771776
H 2.050271 -2.518993 1.852996
H 1.369942 -2.774920 0.186193
H 3.035384 -3.378940 0.603361
C 2.647095 2.027856 -0.973909
H 1.612647 1.983576 -1.362370
H 2.701426 2.801431 -0.180541
H 3.344098 2.294415 -1.792628
N 2.982119 0.714892 -0.450031
N 2.836076 -1.310840 0.298074
C -2.057178 -0.251556 -0.104248
C -4.281425 0.264591 -0.252920
C -4.184712 -1.017835 0.220325
H -5.156776 0.880170 -0.481349
H -4.960499 -1.740490 0.491633
C -2.286366 -2.581337 0.771327
H -1.364692 -2.775967 0.187353
H -2.048904 -2.522425 1.853112
H -3.029687 -3.383282 0.600710
C -2.648421 2.024547 -0.973917
H -2.703759 2.797959 -0.180395
H -1.613924 1.981596 -1.362365
H -3.345778 2.290746 -1.792450
N -2.982046 0.711063 -0.450519
N -2.833574 -1.314612 0.297307
C -0.000796 1.453096 0.739345
N -0.000797 2.493285 1.387116
C -0.011397 3.903001 1.171042
H 0.848237 4.389318 1.682877
H -0.930062 4.363727 1.598122
H 0.035312 4.181006 0.091828
F 0.001761 -2.011487 -1.008312
