37

Ir 0.109701 -0.137096 0.114627
P -2.156536 -0.219104 0.128069
C -5.298652 -0.461851 0.013681
C -4.723507 0.810968 0.191792
C -3.345554 1.047034 0.260176
C -3.127157 -1.650758 -0.090359
C -4.526722 -1.630950 -0.120448
H -6.395363 -0.544803 -0.027337
H -5.401587 1.676583 0.285987
H -2.965368 2.070927 0.404969
H -2.583092 -2.599376 -0.226152
H -5.055935 -2.588165 -0.267353
C 2.158502 -0.245814 0.013855
C 4.275218 -1.090072 -0.516037
C 4.434822 0.090424 0.456624
H 4.511475 -2.068766 -0.036403
H 4.887584 0.986143 -0.030895
C 2.729287 1.364052 1.830742
H 3.002897 2.387339 1.487506
H 1.639208 1.330808 2.019071
H 3.274142 1.149491 2.774522
C 2.265735 -1.966899 -1.781542
H 2.268982 -2.998895 -1.370112
H 1.213589 -1.671886 -1.953584
H 2.828929 -1.946248 -2.738487
N 2.849234 -1.026861 -0.848751
N 3.046106 0.366477 0.834945
H 5.051556 -0.155143 1.345923
H 4.905603 -0.998242 -1.424774
C 0.093582 1.684291 -0.265829
N 0.086813 2.896793 -0.401020
C -0.044465 3.883966 -1.426661
H 0.852407 4.539403 -1.454088
H -0.914973 4.543605 -1.222067
H -0.179045 3.435837 -2.436744
O 0.283515 -2.116306 0.577714
H -0.529679 -2.436430 1.008786
