29

Ir 0.099042 0.096916 -0.047037
As -2.278963 -0.016959 0.027175
C -2.988212 -0.670403 1.729152
C -3.174426 -1.194184 -1.260825
C -3.257773 1.663170 -0.225745
H -2.522864 -1.658560 1.906961
H -4.092418 -0.750004 1.691890
H -2.680979 0.024617 2.533286
H -2.828099 -2.228310 -1.078721
H -2.895198 -0.888168 -2.286582
H -4.272784 -1.133929 -1.131825
H -2.915662 2.393765 0.531574
H -4.348383 1.499160 -0.126673
H -3.026678 2.066365 -1.230114
N 2.228261 0.016068 0.000997
C 5.043611 -0.084221 0.049751
C 4.296221 -1.103557 -0.554454
C 2.898648 -1.025091 -0.556771
C 2.954451 1.004977 0.585761
C 4.350654 0.987715 0.633709
H 6.143415 -0.121494 0.065997
H 4.783383 -1.968999 -1.026767
H 2.263806 -1.823903 -0.969311
H 2.378464 1.832314 1.023463
H 4.881059 1.815347 1.126255
C 0.063461 1.922417 -0.257174
O -0.006832 3.089510 -0.388619
S 0.036137 -2.321054 0.301985
H -0.528711 -2.657720 -0.894615
