27

Ir -0.022823 0.020802 -0.018418
P -2.262233 -0.217441 0.010073
C -2.967184 -0.474899 1.697196
C -2.787848 -1.729530 -0.898624
C -3.305388 1.138200 -0.673559
H -2.456912 -1.346206 2.151979
H -4.061797 -0.654785 1.665145
H -2.748955 0.416259 2.316886
H -2.086082 -2.528210 -0.586350
H -2.651807 -1.560919 -1.984441
H -3.840290 -2.004943 -0.685886
H -3.069421 2.074759 -0.131225
H -4.385671 0.908509 -0.576209
H -3.049233 1.282570 -1.741100
N 2.098415 -0.042104 -0.000592
C 4.296681 0.419885 0.076970
C 3.031386 0.974119 0.079419
N 4.102667 -0.947870 -0.005235
C 2.766670 -1.196511 -0.050074
H 4.833980 -1.658543 -0.026974
H 5.292264 0.870562 0.127969
H 2.721781 2.022698 0.138850
H 2.266557 -2.171835 -0.106571
C -0.118127 1.834412 -0.030555
N -0.152846 3.066769 0.063609
H -0.188749 3.683927 -0.754561
F 0.142272 -2.000623 -0.016617
