29

Ir -0.135601 -0.120867 -0.005083
N -2.198300 -0.174380 0.029097
C -4.375348 0.329549 -0.263888
C -3.082570 0.762926 -0.479738
N -4.257256 -0.885092 0.383923
C -2.935426 -1.161229 0.552268
H -5.024429 -1.483795 0.688298
H -5.343935 0.772259 -0.513355
H -2.722218 1.674041 -0.965072
H -2.530211 -2.069052 1.012969
N 1.900161 -0.167515 0.010039
C 4.728032 -0.256825 0.072496
C 4.049560 0.723798 -0.667897
C 2.653263 0.737366 -0.679694
C 2.563112 -1.118173 0.733210
C 3.957421 -1.191193 0.780910
H 5.827378 -0.290628 0.097398
H 4.594679 1.483310 -1.247164
H 2.085523 1.481442 -1.254197
H 1.919377 -1.827858 1.271351
H 4.427166 -1.982460 1.383190
C -0.138420 1.707783 0.345130
N -0.128181 2.894242 0.628222
C -0.147513 4.187424 0.023992
H 0.753366 4.767346 0.318554
H -1.027483 4.767846 0.375738
H -0.183141 4.143279 -1.088748
S -0.264085 -2.460233 -0.547209
H 1.042960 -2.764540 -0.791939
