28

Ir 0.100124 -0.241205 -0.013032
N 2.149181 -0.195113 -0.037181
C 4.403886 0.538485 0.101246
O 4.293601 -0.875647 -0.246699
C 2.987609 -1.161443 -0.259946
C 2.946581 1.043980 0.142668
H 2.692603 1.752010 -0.669834
H 2.667432 1.528823 1.096779
H 5.029971 1.028581 -0.669420
H 4.923236 0.601792 1.079303
H 2.701901 -2.203455 -0.461772
N -1.950329 -0.164293 -0.029442
C -4.768565 0.026354 -0.072148
C -3.970669 0.942553 -0.772321
C -2.579595 0.820149 -0.733012
C -2.728298 -1.052913 0.649905
C -4.123127 -0.989122 0.649475
H -5.866122 0.100141 -0.089100
H -4.415142 1.759728 -1.358554
H -1.917069 1.519800 -1.258829
H -2.190761 -1.832817 1.204738
H -4.691499 -1.737577 1.220323
C 0.111160 -2.074142 -0.009505
N 0.155040 -3.301649 -0.086975
H 0.139044 -3.958518 0.698701
N 0.112353 1.803357 0.053561
C 0.125429 2.996923 0.240870
O 0.147237 4.184802 0.407694
