27

Ir -0.191258 -0.296877 0.022114
As 2.192114 -0.186728 -0.004509
C 3.171436 -1.881603 0.061598
C 2.981939 0.822944 1.473413
C 2.960568 0.690034 -1.575840
H 2.890197 -2.423112 0.984698
H 4.263663 -1.700493 0.048120
H 2.880870 -2.498653 -0.809757
H 2.732318 0.315463 2.424251
H 2.519231 1.827957 1.467073
H 4.080731 0.894779 1.354060
H 2.694024 0.104790 -2.476062
H 4.061402 0.767602 -1.480902
H 2.500563 1.693737 -1.648025
N -2.291120 -0.198713 0.031689
C -4.592262 -0.691596 -0.287192
O -4.373389 0.593992 0.368258
C -3.050602 0.752670 0.474762
C -3.170657 -1.268388 -0.483035
H -2.919167 -1.472823 -1.542367
H -2.988826 -2.200622 0.089580
H -5.129552 -0.496748 -1.236955
H -5.239527 -1.301943 0.372943
H -2.676359 1.691642 0.909487
C -0.156225 -2.113005 0.101208
O -0.105815 -3.288880 0.153239
Br -0.122177 2.254394 -0.085527
