41

Ir 0.322635 0.032502 -0.030350
P -1.997924 -0.137572 0.003017
C -2.691371 -1.064275 1.464246
C -2.704902 -1.061364 -1.453114
C -2.376304 -0.401709 -2.794884
C -3.003645 1.428334 0.008776
C -2.911356 2.253217 1.295275
C -2.190316 -2.503946 1.601592
H -2.385392 -0.469306 2.349768
H -3.801790 -1.017388 1.406967
H -2.260719 -2.078728 -1.410718
H -3.800835 -1.181525 -1.303918
H -2.631992 2.021422 -0.852663
H -4.056255 1.147114 -0.215987
H -1.281453 -0.248209 -2.891110
H -2.719438 -1.029072 -3.642749
H -2.863858 0.589348 -2.896920
H -3.317118 1.706113 2.169921
H -1.864137 2.538613 1.513977
H -3.498745 3.188818 1.192904
H -2.578791 -3.154504 0.790393
H -1.081573 -2.537527 1.565223
H -2.524878 -2.947609 2.561377
P 2.650779 -0.079127 0.046668
C 3.201004 -1.098032 1.476212
C 3.632658 1.473051 0.159802
C 3.355970 -0.984411 -1.391573
H 2.941129 -0.578521 2.418519
H 4.289159 -1.311117 1.445804
H 2.613463 -2.035718 1.413502
H 3.292086 2.049744 1.041596
H 3.440657 2.087730 -0.741135
H 4.718415 1.263941 0.241831
H 2.787109 -1.933852 -1.447467
H 4.441179 -1.181588 -1.273956
H 3.173205 -0.406454 -2.317996
C 0.285000 1.866773 -0.033664
N 0.274304 3.099754 0.045671
H 0.316945 3.713518 -0.775315
O 0.590884 -2.009905 -0.093159
H -0.209721 -2.512270 -0.320637
