32

Ir -0.003623 -0.008344 -0.029464
As 2.391083 -0.152005 0.011439
C 3.345369 0.579094 -1.541029
C 3.187189 -1.944430 0.155210
C 3.266394 0.810221 1.478128
H 3.016418 0.038065 -2.448358
H 4.443046 0.490401 -1.418964
H 3.061365 1.644053 -1.642266
H 2.885468 -2.546831 -0.723622
H 2.812366 -2.433635 1.074958
H 4.291999 -1.878735 0.194403
H 2.916694 1.860054 1.441042
H 4.369953 0.767045 1.391318
H 2.939957 0.365530 2.437200
As -2.421964 -0.054489 0.004986
C -3.120761 -0.892739 1.629508
C -3.167017 -1.217651 -1.379250
C -3.456344 1.601461 -0.143044
H -2.593781 -1.862363 1.714842
H -4.216708 -1.043983 1.571608
H -2.864334 -0.263290 2.502402
H -2.570742 -2.148567 -1.315739
H -3.008797 -0.751693 -2.370132
H -4.243830 -1.416812 -1.213769
H -3.106878 2.305536 0.636101
H -4.539961 1.407273 -0.023806
H -3.263240 2.052043 -1.135359
C 0.136671 1.825115 -0.016707
N 0.252631 3.049539 0.116488
H 0.287195 3.686156 -0.688252
O -0.338977 -2.021925 -0.022362
H 0.476192 -2.551226 0.009671
