32

Ir -0.205637 0.056136 -0.036940
N -2.352080 -0.018763 0.022204
C -4.532848 0.556180 -0.038657
C -3.242103 1.020761 -0.193005
N -4.407001 -0.784045 0.275444
C -3.084556 -1.101182 0.304375
H -5.169685 -1.434879 0.462501
H -5.503703 1.053511 -0.121229
H -2.888906 2.027178 -0.438440
H -2.671485 -2.090318 0.538389
C 1.780534 0.000634 -0.005107
C 4.015963 0.493250 0.525834
C 3.967106 -0.791150 -0.315637
H 4.444484 1.354986 -0.040763
H 4.192149 -1.700288 0.291264
C 2.099400 -1.856346 -1.640233
H 2.084733 -2.846451 -1.133181
H 1.062862 -1.610895 -1.940591
H 2.747680 -1.913403 -2.540184
C 2.184684 1.785930 1.694403
H 2.421871 2.789358 1.272440
H 1.089096 1.706376 1.832493
H 2.689460 1.688411 2.679134
N 2.601220 0.722003 0.812208
N 2.574169 -0.811739 -0.760057
H 4.666917 -0.777900 -1.176829
H 4.603729 0.380820 1.460477
C -0.204266 1.815311 -0.689712
N -0.211692 2.991560 -1.027967
H -0.163384 3.395789 -1.965550
C -0.209857 -1.897527 0.625957
N -0.264064 -3.027576 0.971763
