36

Ir 0.061243 -0.187161 -0.099959
C 2.115079 0.020328 -0.006134
C 4.326048 -0.367539 0.411800
C 4.234905 0.825308 -0.255934
H 5.195053 -0.903668 0.804956
H 5.009634 1.533748 -0.564507
C 2.364144 2.184689 -1.239317
H 2.312315 1.954652 -2.323001
H 1.351541 2.411250 -0.859056
H 3.023921 3.058640 -1.079986
C 2.678179 -2.089889 1.212638
H 1.661238 -1.985509 1.634449
H 2.673701 -2.929672 0.488338
H 3.403321 -2.302241 2.021172
N 3.029057 -0.838147 0.558742
N 2.886606 1.045510 -0.497074
C -2.003340 -0.251057 -0.108951
C -4.162263 -0.875158 0.292693
C -4.196242 0.306961 -0.398624
H -4.971404 -1.503352 0.677283
H -5.040884 0.917734 -0.731364
C -2.485698 1.877768 -1.346033
H -2.574850 2.764735 -0.687042
H -1.430438 1.766204 -1.654048
H -3.127580 2.008977 -2.239059
C -2.342627 -2.391443 1.138733
H -2.233612 -3.235205 0.427340
H -1.349815 -2.166239 1.571220
H -3.050007 -2.672851 1.941795
N -2.823167 -1.195902 0.462474
N -2.878071 0.666761 -0.638681
C 0.182514 -1.832614 -0.881841
O 0.241947 -2.909689 -1.358997
N -0.116078 1.662529 0.792536
C -0.618277 2.649412 1.273733
O -1.093300 3.655735 1.729721
