43

Ir 0.135998 0.117324 0.063737
P -2.198079 -0.087706 -0.070251
C -2.997965 -1.228775 1.167707
C -2.788846 -0.752114 -1.701156
C -2.344599 0.095506 -2.895249
C -3.226918 1.457550 0.120640
C -3.277830 2.047092 1.532451
C -2.517371 -2.680296 1.128886
H -2.780105 -0.780103 2.159523
H -4.098945 -1.161463 1.018281
H -2.343232 -1.765719 -1.773331
H -3.894630 -0.861978 -1.654993
H -2.792007 2.192261 -0.588886
H -4.250834 1.222044 -0.244788
H -1.239468 0.189256 -2.905927
H -2.661005 -0.372218 -3.850098
H -2.773363 1.118521 -2.867814
H -3.784264 1.367465 2.246942
H -2.265798 2.263279 1.925954
H -3.842278 3.002055 1.532487
H -2.767772 -3.174823 0.169155
H -1.417074 -2.740573 1.239813
H -2.990681 -3.266797 1.943212
C 2.189193 0.041299 0.075718
C 4.322022 -0.619080 0.512554
C 4.383081 0.362184 -0.442135
H 5.114757 -1.199778 0.993873
H 5.239346 0.812451 -0.953282
C 2.679252 1.775955 -1.648348
H 1.587748 1.676277 -1.807494
H 2.900159 2.788606 -1.253272
H 3.212172 1.628864 -2.607836
C 2.457961 -1.786213 1.747850
H 1.455510 -1.448709 2.074133
H 2.342427 -2.766134 1.243690
H 3.136542 -1.876071 2.617915
N 2.979974 -0.795188 0.818277
N 3.073830 0.749510 -0.696519
C 0.110056 1.864953 0.736787
O 0.127374 2.978433 1.111020
C 0.248768 -1.748553 -0.778926
C 0.358281 -2.868220 -1.303791
H 0.446016 -3.840517 -1.769603
