26

Ir 0.377557 -0.410192 -0.000046
N 2.502712 -0.259903 0.000059
C 4.701254 -0.743591 0.000004
C 3.433099 -1.286365 -0.000262
N 4.517933 0.625948 0.000397
C 3.186807 0.889387 0.000462
H 5.254017 1.333079 0.000606
H 5.692075 -1.207010 -0.000107
H 3.130414 -2.337846 -0.000604
H 2.735083 1.886888 0.000706
P -1.856189 -0.413546 -0.000094
C -4.983055 -0.406823 0.000270
C -4.314554 -1.644206 0.000166
C -2.921035 -1.784009 -0.000004
C -2.910666 0.966155 0.000014
C -4.303923 0.825831 0.000174
H -6.083396 -0.402091 0.000415
H -4.921999 -2.564894 0.000218
H -2.465901 -2.786656 -0.000118
H -2.457749 1.970208 -0.000097
H -4.905302 1.750480 0.000227
C 0.406582 -2.249403 -0.000020
O 0.415511 -3.422635 -0.000075
N 0.343134 1.623753 -0.000127
C 0.033087 2.786201 -0.000129
S -0.377653 4.342452 -0.000130
