28

Ir 0.101580 0.289455 -0.001558
N 2.201297 0.220931 0.023042
C 2.867234 -0.746399 0.706760
C 4.268126 -0.778634 0.723556
N 5.031608 0.116677 0.077840
C 4.362744 1.064539 -0.598527
C 2.965135 1.132298 -0.633694
H 2.251785 -1.500760 1.217612
H 4.783745 -1.572087 1.291813
H 4.957579 1.815564 -1.147025
H 2.434292 1.919686 -1.185959
As -2.287312 0.188304 0.039929
C -3.265223 1.880571 0.173055
C -3.017879 -0.847326 1.529309
C -3.116348 -0.659504 -1.516360
H -2.910560 2.431193 1.064640
H -4.353930 1.693530 0.247748
H -3.050998 2.490018 -0.725397
H -2.725752 -0.360023 2.478586
H -2.559686 -1.853354 1.482417
H -4.121004 -0.913472 1.455768
H -2.879161 -0.062592 -2.417164
H -4.213459 -0.732521 -1.383276
H -2.664682 -1.664205 -1.619974
C 0.076924 2.115708 0.104898
N 0.053728 3.329299 0.282573
H 0.026514 4.067342 -0.424926
Br 0.023835 -2.254177 -0.204307
