28

Ir -0.201870 -0.010237 0.035311
As 2.159142 -0.134980 -0.023301
C 2.967640 0.290884 -1.759471
C 2.923570 -1.904971 0.341673
C 3.171642 1.036004 1.178192
H 2.551502 -0.400277 -2.516641
H 4.071170 0.198497 -1.720989
H 2.681902 1.325050 -2.030588
H 2.414454 -2.638037 -0.312817
H 2.738543 -2.171924 1.400063
H 4.012769 -1.908490 0.143188
H 2.856890 2.079603 0.984622
H 4.262027 0.931322 1.014620
H 2.916402 0.779444 2.223760
N -2.297395 -0.095022 -0.002792
C -4.618861 0.360788 -0.120272
O -4.327710 -1.065109 0.001218
C -2.996015 -1.182968 0.056012
C -3.228140 1.041086 -0.113849
H -3.074122 1.728830 0.742108
H -3.009095 1.609721 -1.039818
H -5.262861 0.648173 0.734667
H -5.185601 0.510208 -1.061011
H -2.520148 -2.174763 0.137645
C -0.113574 1.817545 0.059004
O -0.032251 2.995344 0.104039
O -0.389228 -2.040893 0.013179
H 0.276179 -2.474553 0.575480
