30

Ir 0.321884 -0.146570 0.013258
N 2.455751 -0.213683 0.036750
C 4.631767 0.353057 0.180969
C 3.339688 0.834207 0.233717
N 4.510181 -1.004614 -0.052441
C 3.190648 -1.316603 -0.134490
H 5.276661 -1.671198 -0.146821
H 5.601070 0.848437 0.289269
H 2.983656 1.854675 0.401881
H 2.768213 -2.316334 -0.298598
P -1.885020 -0.197489 0.023106
C -5.032894 -0.261740 0.048025
C -4.382150 0.981455 0.147429
C -2.991230 1.142723 0.146958
C -2.933907 -1.581692 -0.083552
C -4.328448 -1.476064 -0.061036
H -6.133135 -0.285968 0.057290
H -5.005657 1.888103 0.232861
H -2.555678 2.150276 0.234840
H -2.437681 -2.560530 -0.168931
H -4.913154 -2.409267 -0.133685
C 0.321146 1.769587 0.032805
N 0.312288 2.971557 0.060397
C 0.197852 4.310827 -0.369556
H -0.829114 4.694524 -0.186292
H 0.412974 4.410607 -1.456641
H 0.900739 4.967927 0.184865
C 0.324293 -2.182176 -0.079813
C 0.350560 -3.422388 -0.144318
H 0.349817 -4.503012 -0.193305
