32

Ir -0.038867 -0.153561 -0.015632
P -2.268028 -0.470484 0.036431
C -2.725282 -1.732330 1.297771
C -2.936499 -1.212769 -1.514220
C -3.387679 0.955424 0.368882
H -2.062162 -2.597762 1.096366
H -3.792140 -2.027901 1.229174
H -2.502761 -1.340216 2.308649
H -2.312300 -2.107633 -1.705311
H -2.806795 -0.501538 -2.352496
H -4.004050 -1.498631 -1.417490
H -3.098062 1.420726 1.331092
H -4.449663 0.639321 0.409808
H -3.256503 1.709821 -0.431491
N 2.063432 -0.231517 -0.030572
C 4.395270 0.199734 -0.039524
O 4.083251 -1.199622 0.235712
C 2.746278 -1.303386 0.216301
C 3.014083 0.878488 -0.213673
H 2.865587 1.328942 -1.215617
H 2.804266 1.666455 0.537554
H 5.028142 0.232442 -0.949196
H 4.981355 0.589352 0.816872
H 2.271312 -2.281898 0.393559
C -0.137753 1.674174 0.210602
N -0.175652 2.880114 0.404942
C -0.519398 4.106870 -0.235380
H 0.209296 4.905081 0.021236
H -1.516884 4.464430 0.105654
H -0.553205 4.014576 -1.344929
O 0.027878 -2.212097 -0.260364
H 0.410099 -2.377721 -1.144175
