35

Ir -0.097001 -0.409300 0.085259
P -2.336674 0.067747 -0.001798
C -5.385698 0.799314 -0.168875
C -5.025542 -0.550845 -0.004355
C -3.702995 -1.003894 0.082530
C -3.053318 1.638845 -0.203207
C -4.437477 1.835760 -0.264159
H -6.454389 1.055798 -0.227558
H -5.833579 -1.299540 0.057631
H -3.492934 -2.078346 0.204269
H -2.358301 2.489215 -0.286037
H -4.807048 2.867052 -0.394809
C 1.949977 -0.643194 0.067086
C 4.186739 -0.126145 0.495829
C 4.116902 -1.096706 -0.694486
H 4.454390 0.909598 0.184616
H 4.515509 -2.108903 -0.448830
C 2.147310 -1.895244 -2.080536
H 2.397515 -2.978067 -2.018207
H 1.046693 -1.776279 -2.087775
H 2.564079 -1.490044 -3.026800
C 2.433739 0.647468 2.146332
H 2.621286 1.729455 1.968257
H 1.354652 0.499849 2.341211
H 3.019938 0.315873 3.029033
N 2.802114 -0.137359 0.985910
N 2.673419 -1.170018 -0.946825
H 4.658034 -0.727883 -1.589778
H 4.896577 -0.447481 1.285044
C -0.405721 -2.205193 0.406251
N -0.596073 -3.407426 0.515242
H -0.694604 -3.971754 1.361475
N 0.368417 1.569713 -0.235021
C 1.118750 2.506460 -0.306475
S 2.140014 3.755454 -0.373778
