28

Ir -0.107719 0.095517 -0.038482
N -2.221238 0.013246 0.000575
C -2.901723 -1.057562 -0.485117
C -4.303579 -1.087224 -0.468013
N -5.054744 -0.090219 0.022686
C -4.371484 0.959836 0.508755
C -2.974027 1.028737 0.501421
H -2.287838 -1.899616 -0.840848
H -4.829885 -1.967619 -0.876198
H -4.953984 1.798423 0.928061
H -2.437737 1.903540 0.894560
As 2.279927 -0.014936 0.013471
C 3.249467 1.666751 -0.257440
C 3.155206 -1.197006 -1.281128
C 3.000728 -0.657983 1.712987
H 3.007981 2.063975 -1.261734
H 4.341289 1.505477 -0.168434
H 2.913601 2.400388 0.499697
H 2.859920 -0.896850 -2.304086
H 2.814020 -2.230584 -1.087412
H 4.255046 -1.132306 -1.168816
H 2.695864 0.039058 2.516217
H 4.104965 -0.731114 1.667474
H 2.543428 -1.648369 1.898259
C -0.069681 1.927713 -0.203485
O 0.005779 3.097308 -0.295267
S -0.017859 -2.322323 0.298676
H 0.492086 -2.648399 -0.925541
