51

Ir 1.049231 -0.209164 -0.006568
P -1.265020 0.030271 0.003854
C -2.015446 -2.476973 0.988581
C -2.273429 -1.511469 -0.008727
C -1.870329 0.989106 -1.450159
C -1.153791 0.879019 -2.659855
C -1.596885 1.559787 -3.803638
C -2.749918 2.359896 -3.744728
C -3.459569 2.480354 -2.538250
C -3.022973 1.798578 -1.391726
C -1.913265 0.970255 1.455211
C -1.161452 2.078445 1.905405
C -1.631921 2.841941 2.983734
C -2.839279 2.507706 3.621111
C -3.582640 1.403031 3.176312
C -3.124162 0.633355 2.094390
C -3.271866 -1.758529 -0.971392
C -4.004468 -2.956519 -0.933391
C -3.750514 -3.909604 0.064699
C -2.755284 -3.666371 1.026724
H -1.225667 -2.294132 1.734076
H -0.237098 0.266299 -2.679887
H -1.032141 1.472328 -4.744566
H -3.093075 2.899409 -4.641111
H -4.358167 3.114429 -2.486990
H -3.576217 1.900675 -0.445334
H -0.211061 2.318976 1.397286
H -1.044867 3.705476 3.333355
H -3.200544 3.108238 4.470455
H -4.527457 1.134788 3.674073
H -3.709304 -0.233389 1.750979
H -3.477279 -1.013668 -1.754671
H -4.779778 -3.143767 -1.692262
H -4.325512 -4.848017 0.091089
H -2.545765 -4.413396 1.807487
As 3.469274 0.029585 0.034454
C 4.675696 -1.511364 0.012261
C 4.026037 1.056334 1.602096
C 4.107559 1.161115 -1.426425
H 4.440956 -2.157596 0.879546
H 5.733829 -1.188191 0.057995
H 4.498156 -2.089247 -0.914820
H 3.859167 0.451403 2.513087
H 3.359292 1.939392 1.623886
H 5.087662 1.363437 1.531178
H 3.968692 0.631565 -2.387706
H 5.171596 1.435781 -1.289048
H 3.463052 2.060671 -1.409276
C 1.030567 -2.023825 -0.080899
O 1.058999 -3.199425 -0.132898
F 1.223556 1.824840 0.047470
