38

Ir 0.105774 -0.049924 0.002602
P -2.162842 -0.222241 0.039593
C -5.304166 -0.500699 0.105213
C -4.742982 0.787154 0.030323
C -3.365736 1.038886 -0.004295
C -3.119263 -1.674182 0.129227
C -4.517745 -1.668046 0.152663
H -6.400251 -0.599395 0.128383
H -5.429354 1.650917 -0.001946
H -3.000296 2.076731 -0.060430
H -2.553424 -2.618611 0.169467
H -5.037099 -2.640125 0.211677
C 2.153499 -0.136629 0.018790
C 4.317923 -0.781228 -0.589049
C 4.370946 -0.072516 0.775584
H 4.498446 -1.878183 -0.500731
H 4.874695 0.921590 0.720953
C 2.512312 0.636622 2.353294
H 2.892515 1.672714 2.504664
H 1.403625 0.648077 2.347937
H 2.868323 0.004403 3.194568
C 2.437843 -1.077271 -2.258562
H 2.454489 -2.189589 -2.250290
H 1.385214 -0.752324 -2.374679
H 3.048541 -0.705787 -3.108444
N 2.935932 -0.538238 -1.011939
N 2.950218 0.094852 1.088905
H 4.887560 -0.667991 1.556796
H 5.044745 -0.375607 -1.323024
C 0.049579 1.862340 -0.151688
N 0.013488 3.060255 -0.219446
C -0.058163 4.388114 -0.681997
H 0.834610 4.968647 -0.364281
H -0.952464 4.903977 -0.270443
H -0.118303 4.431676 -1.792578
C 0.228347 -2.084097 0.127735
C 0.347988 -3.318008 0.187191
H 0.436732 -4.394099 0.248977
