53

Ir 1.038546 -0.115892 0.036478
P -1.278816 0.039799 0.014045
C -1.959626 -2.453478 1.104259
C -2.142463 -1.595502 -0.003188
C -1.954943 0.911998 -1.465534
C -1.148821 0.992114 -2.619013
C -1.638842 1.614179 -3.777542
C -2.930747 2.164094 -3.788902
C -3.733776 2.093503 -2.637867
C -3.249582 1.471017 -1.477585
C -2.084167 0.916201 1.434905
C -1.481715 2.087238 1.943037
C -2.097636 2.798603 2.983493
C -3.311044 2.351427 3.531592
C -3.914017 1.187829 3.029255
C -3.306831 0.472592 1.984433
C -2.903453 -2.040963 -1.100256
C -3.474517 -3.325371 -1.089430
C -3.298772 -4.169631 0.016893
C -2.541437 -3.728474 1.117013
H -1.353941 -2.114493 1.960156
H -0.129405 0.572723 -2.583271
H -1.002178 1.678745 -4.673200
H -3.311603 2.658882 -4.695794
H -4.743067 2.533315 -2.640595
H -3.877618 1.428019 -0.574384
H -0.532669 2.447442 1.517714
H -1.618394 3.711413 3.369433
H -3.787449 2.910291 4.351964
H -4.866216 0.830451 3.451168
H -3.790040 -0.437187 1.597975
H -3.049501 -1.383052 -1.970020
H -4.064134 -3.664766 -1.954998
H -3.752044 -5.172861 0.024672
H -2.403625 -4.383720 1.991435
As 3.471023 -0.018245 0.077373
C 4.485153 -1.693420 0.156870
C 4.199224 1.011684 1.572986
C 4.261133 0.901227 -1.458688
H 4.226488 -2.221136 1.094605
H 5.574082 -1.495024 0.125075
H 4.189029 -2.330483 -0.698039
H 3.904167 0.527615 2.522980
H 3.743858 2.019259 1.521977
H 5.302617 1.077975 1.503837
H 4.009595 0.345295 -2.381545
H 5.360356 0.978765 -1.347424
H 3.803009 1.907895 -1.503512
C 1.018396 -2.001716 -0.051260
N 1.069982 -3.196417 -0.261248
H 0.782425 -4.035809 0.237456
C 1.239345 1.924467 -0.013218
N 1.483090 3.082345 -0.049318
