26

Ir -0.089923 0.303287 0.002176
N -2.139737 0.295571 -0.019282
C -4.398166 -0.327399 0.296137
O -4.255773 0.813035 -0.607859
C -2.938561 1.004457 -0.754778
C -2.984773 -0.539750 0.868048
H -2.625496 -1.586617 0.825609
H -2.864433 -0.175456 1.909403
H -4.754204 -1.187005 -0.309639
H -5.166988 -0.071230 1.049631
H -2.615620 1.767950 -1.476185
N 1.965372 0.231590 -0.013195
C 4.783686 0.103084 -0.043346
C 4.014247 -0.708869 -0.888351
C 2.619605 -0.621975 -0.849324
C 2.714223 1.018014 0.807415
C 4.110527 0.981311 0.819108
H 5.882812 0.053432 -0.055875
H 4.482997 -1.417451 -1.586269
H 1.978325 -1.251915 -1.480486
H 2.149092 1.687746 1.469385
H 4.657257 1.640935 1.508301
C -0.097671 2.127502 -0.051464
N -0.159756 3.344539 -0.213618
H -0.154330 4.053025 0.525839
Br -0.131401 -2.248313 0.080502
