34

Ir 0.074480 0.063902 0.032236
As -2.366710 -0.079573 0.027458
C -3.143232 -0.254356 1.819316
C -2.971007 -1.754931 -0.788500
C -3.507790 1.274556 -0.817761
H -2.570787 -1.064460 2.310740
H -4.221570 -0.504935 1.778330
H -2.990457 0.687651 2.379511
H -2.352220 -2.543686 -0.318089
H -2.761501 -1.727722 -1.874636
H -4.048993 -1.936502 -0.610294
H -3.354272 2.242100 -0.302124
H -4.576807 0.989848 -0.767199
H -3.196046 1.389524 -1.873577
C 2.084822 -0.137660 0.064812
C 4.172927 -0.985129 -0.305350
C 4.326697 0.242702 0.282866
H 4.915414 -1.717851 -0.636007
H 5.229334 0.789623 0.571874
C 2.764799 2.028711 1.116546
H 2.773521 2.834079 0.354588
H 1.753703 1.978377 1.562840
H 3.517520 2.247707 1.898502
C 2.211919 -2.373688 -1.062947
H 1.205598 -2.524779 -0.622936
H 2.118268 -2.213813 -2.156501
H 2.849678 -3.258864 -0.874029
N 2.808238 -1.205619 -0.422929
N 3.050432 0.738940 0.508928
C 0.146645 1.708844 -0.778958
N 0.199004 2.769610 -1.410564
H 0.087039 3.689413 -0.970671
O -0.189744 -1.781676 0.923719
H 0.588594 -2.011687 1.463440
