31

Ir 0.141891 -0.444444 -0.035892
P 2.469600 -0.728956 0.040661
C 3.227344 0.018168 1.540985
C 3.370614 0.085340 -1.341471
C 3.098122 -2.457752 0.030348
H 3.013081 1.105110 1.542646
H 4.324637 -0.142996 1.547418
H 2.774902 -0.435000 2.443679
H 3.169621 1.174432 -1.307823
H 3.002610 -0.314001 -2.305919
H 4.461911 -0.091633 -1.253292
H 2.645923 -3.015462 0.873005
H 4.203144 -2.478357 0.114931
H 2.790097 -2.950298 -0.912238
P -2.095308 0.028669 -0.017343
C -5.142315 0.755304 0.064466
C -4.203539 1.800304 -0.028319
C -2.817942 1.607363 -0.072552
C -3.448324 -1.054559 0.095873
C -4.773294 -0.601138 0.124157
H -6.212428 1.010710 0.093773
H -4.581168 2.836009 -0.068008
H -2.131000 2.465197 -0.142806
H -3.228882 -2.132305 0.154394
H -5.575410 -1.354645 0.200352
C -0.181175 -2.266766 -0.062543
N -0.381633 -3.469218 0.022519
H -0.503033 -4.161861 -0.719009
N 0.591408 1.548494 -0.032169
C 1.180378 2.596442 -0.012809
S 1.998650 3.985030 0.011973
