49

Ir 1.282913 0.036257 0.011308
P -0.979254 -0.007167 -0.011009
C -1.013151 -1.196403 2.526297
C -1.701144 -1.113898 1.296351
C -1.760073 -0.623477 -1.580245
C -1.013757 -1.453396 -2.441287
C -1.594780 -1.960032 -3.614176
C -2.921084 -1.638863 -3.944283
C -3.668040 -0.805443 -3.095776
C -3.092231 -0.298967 -1.920201
C -1.899214 1.578258 0.254112
C -1.857379 2.556837 -0.765313
C -2.515838 3.782832 -0.594358
C -3.212413 4.051903 0.596254
C -3.248253 3.087921 1.615246
C -2.595909 1.854783 1.446435
C -2.891206 -1.847694 1.122523
C -3.388035 -2.646181 2.165438
C -2.706614 -2.714859 3.391231
C -1.518232 -1.987124 3.569798
H -0.066335 -0.642286 2.639585
H 0.030902 -1.687144 -2.186690
H -1.000780 -2.605831 -4.279189
H -3.372345 -2.032182 -4.868481
H -4.706056 -0.542032 -3.351912
H -3.681233 0.363658 -1.267559
H -1.298532 2.356792 -1.692061
H -2.477122 4.537066 -1.395279
H -3.726317 5.016437 0.729387
H -3.791164 3.291958 2.551094
H -2.633982 1.102429 2.248303
H -3.429972 -1.807758 0.164262
H -4.314316 -3.222346 2.015568
H -3.099181 -3.342051 4.206732
H -0.975347 -2.040644 4.526390
N 3.419980 0.025439 -0.040196
C 5.543656 -0.575139 -0.486811
C 4.218409 -0.918502 -0.663420
N 5.529036 0.590107 0.257833
C 4.236067 0.924270 0.516609
H 6.344960 1.117871 0.567813
H 6.471203 -1.048464 -0.822029
H 3.780990 -1.775866 -1.184043
H 3.897597 1.816956 1.056646
C 1.275360 -1.813303 0.106338
N 1.292451 -3.042547 0.072211
H 1.318784 -3.647843 0.899924
S 1.533575 2.422757 -0.046706
H 0.348473 2.870767 0.449706
