27

Ir -0.174222 0.074808 -0.007372
N 1.874941 -0.005709 -0.008142
C 3.993612 -0.676114 -0.379626
C 2.665719 -0.995517 -0.578558
N 3.996952 0.518920 0.313100
C 2.707367 0.898774 0.525287
H 4.819409 1.039616 0.616941
H 4.914243 -1.189962 -0.670838
H 2.199672 -1.863914 -1.055524
H 2.406096 1.817110 1.037804
N -2.363132 0.016078 -0.007570
C -2.841156 -0.875314 -1.100223
C -2.831855 -0.517056 1.302126
C -2.970964 1.356245 -0.213297
H -2.389214 -1.519980 1.449851
H -3.945299 -0.571387 1.315532
H -2.480350 0.152430 2.108690
H -2.636340 1.770563 -1.181468
H -2.651581 2.038077 0.595016
H -4.081916 1.276852 -0.209092
H -2.448351 -1.895764 -0.937811
H -2.470665 -0.492001 -2.068556
H -3.954936 -0.905274 -1.108553
C -0.093539 1.899439 -0.128853
O 0.038392 3.071644 -0.180289
S -0.198502 -2.360138 0.142744
H 0.666795 -2.475272 1.191178
