54

Ir 1.154123 -0.113743 0.060391
P -1.204625 0.008533 0.024669
C -1.835852 -2.667650 -0.497241
C -2.101265 -1.332511 -0.872400
C -1.793279 1.557544 -0.790510
C -0.999345 2.098884 -1.822616
C -1.416696 3.253494 -2.501262
C -2.623027 3.880908 -2.148117
C -3.411429 3.350841 -1.113321
C -3.000090 2.192690 -0.434865
C -2.050082 0.052663 1.670342
C -1.468446 0.859503 2.673569
C -2.082334 0.953934 3.930976
C -3.266929 0.246752 4.201139
C -3.842471 -0.557521 3.204971
C -3.239118 -0.655246 1.939787
C -3.019631 -1.077393 -1.909868
C -3.663644 -2.143042 -2.560352
C -3.402230 -3.467542 -2.177607
C -2.487715 -3.727174 -1.142690
H -1.108549 -2.874314 0.303373
H -0.043778 1.605332 -2.066687
H -0.791638 3.671549 -3.305624
H -2.947182 4.791055 -2.676428
H -4.353208 3.844997 -0.828252
H -3.616552 1.783067 0.380253
H -0.532117 1.397230 2.432685
H -1.627963 1.584592 4.711348
H -3.742368 0.321384 5.191708
H -4.769908 -1.114565 3.410515
H -3.696440 -1.286149 1.162579
H -3.232084 -0.041163 -2.212598
H -4.375999 -1.932940 -3.373196
H -3.907825 -4.300821 -2.689586
H -2.271692 -4.763903 -0.842199
C 3.187867 0.037344 0.105222
C 5.410041 -0.418551 0.324898
C 5.297141 0.833118 -0.222744
H 6.293617 -1.001807 0.601291
H 6.063487 1.554758 -0.521717
C 3.379141 2.305505 -0.942160
H 3.226697 2.162454 -2.031226
H 2.404905 2.507967 -0.453453
H 4.075190 3.149687 -0.775893
C 3.781747 -2.186262 1.081128
H 2.778955 -2.112671 1.542645
H 3.744720 -2.957675 0.285861
H 4.533074 -2.470426 1.842376
N 4.118140 -0.883168 0.524678
N 3.940706 1.097532 -0.342930
C 1.238820 -1.692532 -0.863359
O 1.351463 -2.718129 -1.433807
O 1.058320 1.675571 1.082953
H 1.861352 1.765961 1.629167
