23

Ir 0.122565 0.297913 -0.036411
N -1.917549 0.228452 -0.041197
C -2.594432 -0.749716 -0.707886
C -3.993665 -0.788259 -0.702150
N -4.756893 0.110721 -0.060279
C -4.080951 1.069854 0.593442
C -2.684774 1.144139 0.615908
H -1.985817 -1.502070 -1.227095
H -4.509524 -1.592916 -1.254138
H -4.669281 1.828692 1.137938
H -2.156173 1.936098 1.163039
N 2.194226 0.278377 -0.047424
C 4.351506 0.858387 0.241024
C 3.046656 1.263897 0.427964
N 4.271789 -0.384883 -0.356826
C 2.963737 -0.709418 -0.521738
H 5.058215 -0.975034 -0.628834
H 5.304210 1.339580 0.479753
H 2.663489 2.189361 0.867292
H 2.586619 -1.651783 -0.933180
C 0.114851 2.112880 -0.212088
O 0.118358 3.286189 -0.292245
Br 0.172725 -2.218285 0.304859
