36

Ir -0.166593 -0.098914 0.024247
N -2.289016 -0.190554 0.064093
C -4.523509 -0.993027 0.119283
O -4.445125 0.454728 0.306027
C -3.137209 0.753837 0.313495
C -3.077882 -1.413461 -0.215068
H -2.929122 -1.690965 -1.278832
H -2.691550 -2.253154 0.393435
H -5.257521 -1.193257 -0.684940
H -4.899877 -1.430903 1.067393
H -2.867862 1.799267 0.520975
C 1.820063 -0.171089 0.040696
C 3.999444 -0.903793 -0.425151
C 4.058239 0.165529 0.676551
H 4.206853 -1.926304 -0.029193
H 4.502760 1.123857 0.313386
C 2.229799 1.192570 2.089719
H 2.498464 2.259791 1.910922
H 1.129409 1.107716 2.184717
H 2.708324 0.865536 3.037568
C 2.126196 -1.636756 -1.952125
H 2.101075 -2.711188 -1.665087
H 1.091482 -1.322777 -2.189005
H 2.774278 -1.507660 -2.844810
N 2.609959 -0.807290 -0.870533
N 2.644525 0.345776 0.998381
H 4.637568 -0.156497 1.566770
H 4.706958 -0.713756 -1.258794
C -0.175012 1.778755 -0.272279
N -0.186772 2.977583 -0.412532
C -0.099317 4.187812 -1.139760
H -0.090056 4.009451 -2.238192
H 0.826686 4.741844 -0.873322
H -0.956906 4.853903 -0.905686
C -0.143908 -2.129905 0.295477
N -0.144939 -3.305399 0.430933
