27

Ir 0.180951 0.067191 0.002885
P -2.052160 -0.018352 -0.009020
C -5.177023 -0.154557 -0.026011
C -4.560773 1.106335 0.067241
C -3.174076 1.303646 0.084341
C -3.051018 -1.434285 -0.113316
C -4.448244 -1.355892 -0.111490
H -6.276305 -0.203869 -0.032376
H -5.206686 1.998166 0.131073
H -2.763079 2.322445 0.160345
H -2.533580 -2.403765 -0.183223
H -5.011381 -2.301711 -0.181957
N 2.321988 -0.022654 -0.006017
C 5.133222 -0.151166 -0.015601
C 4.368339 -1.163900 0.578551
C 2.972821 -1.071661 0.561736
C 3.064416 0.958245 -0.582519
C 4.461156 0.927246 -0.609328
H 6.232493 -0.201427 -0.018955
H 4.839135 -2.036224 1.053888
H 2.337095 -1.859944 0.988597
H 2.505748 1.789252 -1.035116
H 5.007222 1.749140 -1.094009
C 0.152251 1.941044 0.199978
O 0.104459 3.101164 0.327177
C 0.169008 -1.967175 -0.169330
N 0.166925 -3.146934 -0.233707
