33

Ir 0.056198 -0.231481 0.013604
N 1.986681 0.641864 0.013796
C 2.186784 1.879733 -0.509474
C 3.458724 2.466971 -0.503558
N 4.543107 1.863928 0.009382
C 4.332729 0.643478 0.529047
C 3.077135 0.024740 0.538776
H 1.299904 2.388496 -0.913722
H 3.593331 3.472515 -0.938526
H 5.200846 0.119316 0.965591
H 2.925415 -0.977676 0.963371
P -2.103092 -0.969285 0.025769
C -3.118485 -0.370055 -1.389552
C -3.066328 -0.407556 1.491863
C -2.372368 -2.792271 0.005239
H -3.162302 0.736543 -1.356358
H -4.147148 -0.780999 -1.335463
H -2.640249 -0.678483 -2.338860
H -3.095127 0.700036 1.495123
H -2.561629 -0.752747 2.414367
H -4.101731 -0.803573 1.457357
H -1.927721 -3.214574 -0.916851
H -3.453886 -3.032672 0.037597
H -1.862915 -3.245396 0.877559
C 0.722371 -1.964707 0.038185
N 1.148092 -3.093825 0.135708
C 1.519078 -4.326009 -0.463840
H 2.405448 -4.759805 0.043987
H 1.759570 -4.206379 -1.543443
H 0.694839 -5.066849 -0.373490
N -0.752340 1.649104 -0.011891
C -1.575831 2.527072 0.009512
S -2.698073 3.684354 0.032599
