36

Ir -0.065115 0.137259 -0.009826
N -2.208450 0.010768 0.013508
C -5.022922 -0.160519 0.060036
C -4.250057 -1.145262 -0.571510
C -2.855696 -1.028495 -0.574302
C -2.959353 0.963064 0.624988
C -4.355990 0.913038 0.669659
H -6.121376 -0.227542 0.077977
H -4.716146 -2.010725 -1.064702
H -2.206657 -1.791472 -1.029512
H -2.399593 1.790110 1.085205
H -4.907503 1.713629 1.183862
C 1.924230 0.121461 -0.010085
C 4.113537 -0.468468 -0.596813
C 4.152273 0.386983 0.680063
H 4.341012 -1.540955 -0.389532
H 4.585646 1.400102 0.500164
C 2.299916 1.132672 2.236761
H 2.603962 2.204139 2.264630
H 1.194738 1.067123 2.276081
H 2.731921 0.619944 3.122675
C 2.242568 -0.978998 -2.217395
H 2.260624 -2.086371 -2.111116
H 1.191733 -0.668724 -2.378837
H 2.865206 -0.680275 -3.087238
N 2.720899 -0.324785 -1.020249
N 2.734080 0.492486 1.018545
H 4.729558 -0.083811 1.502754
H 4.815320 -0.117531 -1.381656
C -0.108506 1.967071 -0.195040
N -0.141724 3.184803 -0.204364
C -0.157719 4.320291 -1.066579
H 0.718226 4.974583 -0.867529
H -1.064996 4.935581 -0.885494
H -0.141024 4.035679 -2.142237
Br 0.076168 -2.393782 0.319724
