27

Ir -0.003815 0.163767 -0.019523
N -2.052975 0.135696 -0.055356
C -4.313369 -0.536545 0.187834
O -4.189772 0.848713 -0.259057
C -2.877761 1.112301 -0.290393
C -2.879184 -1.087388 0.125125
H -2.699766 -1.758273 -0.740396
H -2.546095 -1.627327 1.030547
H -5.029128 -1.049614 -0.482177
H -4.730554 -0.517631 1.216685
H -2.579073 2.144526 -0.519422
N 2.044249 0.064278 -0.015797
C 4.346656 0.482307 0.379899
O 4.121754 -0.667554 -0.488366
C 2.798507 -0.798815 -0.626629
C 2.930511 1.023874 0.678500
H 2.750563 2.040799 0.274860
H 2.681479 1.038359 1.757745
H 4.995224 1.196537 -0.164949
H 4.885176 0.123632 1.280067
H 2.399835 -1.642279 -1.213085
C 0.015010 2.010789 -0.041827
N 0.023816 3.234571 -0.127635
H -0.040652 3.919676 0.629672
N 0.011316 -1.968974 0.114741
O 0.546958 -2.646404 -0.788527
O -0.491483 -2.531831 1.104326
