49

Ir 1.253348 0.006921 0.042319
P -1.026403 -0.014506 -0.013604
C -1.106850 -1.307718 2.469132
C -1.778946 -1.159778 1.236822
C -1.767523 -0.559934 -1.624863
C -0.995670 -1.341741 -2.507862
C -1.546565 -1.800359 -3.714412
C -2.869380 -1.477060 -4.055898
C -3.641199 -0.688692 -3.186723
C -3.094980 -0.230332 -1.977941
C -1.928029 1.571396 0.295622
C -1.896273 2.574579 -0.699919
C -2.544848 3.799268 -0.487053
C -3.220110 4.041768 0.721278
C -3.245413 3.052813 1.716461
C -2.603532 1.820774 1.506232
C -2.987529 -1.851996 1.022139
C -3.518044 -2.673724 2.029016
C -2.852382 -2.807068 3.258260
C -1.645962 -2.122223 3.476384
H -0.146426 -0.786459 2.616515
H 0.048697 -1.569373 -2.244345
H -0.932745 -2.408658 -4.396459
H -3.298283 -1.832632 -5.005559
H -4.676070 -0.423033 -3.452633
H -3.702783 0.399064 -1.309879
H -1.353553 2.395552 -1.640132
H -2.514604 4.573356 -1.269070
H -3.726098 5.005387 0.886949
H -3.771934 3.236114 2.665739
H -2.633391 1.048471 2.289211
H -3.514336 -1.761481 0.060860
H -4.457917 -3.217819 1.847977
H -3.270840 -3.453858 4.044895
H -1.113364 -2.230194 4.433813
N 3.368687 0.062896 0.014774
C 5.647046 -0.379495 -0.478184
O 5.475600 0.718695 0.468009
C 4.159229 0.873462 0.644019
C 4.208707 -0.881401 -0.748094
H 4.023903 -1.913118 -0.384550
H 3.923956 -0.847589 -1.817928
H 6.307252 -1.133295 -0.006011
H 6.152073 0.028314 -1.376933
H 3.812782 1.695673 1.287537
C 1.255636 -1.839487 0.135339
O 1.284275 -3.012682 0.212534
S 1.473613 2.393831 -0.036348
H 0.330031 2.812318 0.570753
