35

Ir 0.140760 -0.082741 -0.007123
C 2.193234 -0.198724 -0.041432
C 4.365369 -0.031258 -0.699020
C 4.331613 -0.805394 0.431397
H 5.204211 0.286840 -1.325312
H 5.136038 -1.299593 0.984455
C 2.513836 -1.688420 1.938941
H 1.600346 -1.208645 2.336882
H 2.240198 -2.705553 1.595140
H 3.293979 -1.735946 2.722048
C 2.633539 1.139856 -2.103957
H 1.529424 1.079870 -2.165347
H 2.940458 2.196984 -1.967117
H 3.077697 0.746018 -3.038901
N 3.052441 0.328133 -0.971967
N 3.002657 -0.892180 0.818875
P -2.133435 -0.185410 -0.049727
C -5.274764 -0.383603 -0.139845
C -4.684045 0.886934 -0.014843
C -3.301328 1.104359 0.036130
C -3.120497 -1.611990 -0.196388
C -4.518291 -1.568376 -0.226008
H -6.372715 -0.454218 -0.172105
H -5.349867 1.764916 0.046134
H -2.911342 2.130029 0.133769
H -2.581078 -2.570175 -0.269152
H -5.060917 -2.524247 -0.323053
C 0.148488 1.815780 0.277898
N 0.151743 2.999440 0.454839
C 0.104449 4.335288 0.891686
H -0.630729 4.921925 0.299698
H 1.095286 4.825168 0.778610
H -0.188677 4.398916 1.962801
C 0.163462 -2.111749 -0.219562
N 0.194636 -3.292007 -0.289480
