28

Ir -0.238674 -0.044121 0.022093
As 2.110743 -0.140103 -0.018817
C 2.968438 0.769977 -1.529904
C 2.934967 -1.923781 -0.090742
C 3.063166 0.677771 1.491608
H 2.630473 0.291796 -2.468592
H 4.073081 0.730436 -1.454081
H 2.619229 1.820555 -1.525045
H 2.548639 -2.462962 -0.977099
H 2.663723 -2.486771 0.823412
H 4.037190 -1.840241 -0.157865
H 2.756291 1.739932 1.545845
H 4.161434 0.607492 1.363130
H 2.753060 0.171737 2.425327
N -2.350814 -0.037977 -0.002201
C -4.519738 0.543235 -0.103863
C -3.225931 1.026192 -0.115574
N -4.401373 -0.830461 0.018014
C -3.081882 -1.151737 0.077361
H -5.170389 -1.499145 0.056317
H -5.488308 1.047099 -0.172652
H -2.858648 2.053892 -0.202338
H -2.626698 -2.148945 0.156712
C -0.120438 1.785172 0.051430
N -0.031986 3.019237 -0.029026
H -0.020691 3.606713 0.814243
O -0.532117 -2.055367 0.003910
H 0.279659 -2.584472 0.071775
