29

Ir -0.302891 -0.123058 -0.040585
N -2.430308 -0.172185 0.063667
C -4.610865 0.353207 -0.127962
C -3.324869 0.776444 -0.398063
N -4.473739 -0.866789 0.507320
C -3.149270 -1.155608 0.611829
H -5.232301 -1.458579 0.846474
H -5.586173 0.804680 -0.331575
H -2.980407 1.690095 -0.891013
H -2.730762 -2.071075 1.046127
P 1.900662 -0.173887 -0.003152
C 5.046929 -0.231205 0.156784
C 4.410956 0.956301 -0.249875
C 3.023482 1.108609 -0.357827
C 2.932981 -1.492059 0.477155
C 4.329243 -1.390660 0.503456
H 6.145801 -0.251992 0.211242
H 5.044630 1.823916 -0.501945
H 2.599261 2.069880 -0.687104
H 2.438816 -2.426588 0.784595
H 4.900691 -2.277972 0.825725
C -0.291421 1.729470 0.254035
N -0.288281 2.919426 0.483986
C -0.244494 4.232907 -0.061523
H 0.679830 4.755594 0.264960
H -1.101960 4.835807 0.305296
H -0.267985 4.230146 -1.174611
S -0.515969 -2.453588 -0.563733
H 0.769046 -2.870332 -0.738947
