49

Ir 0.105258 -0.190286 0.014718
P 2.199615 0.862367 -0.026273
C 3.207964 0.526968 1.502281
C 2.176974 2.720938 -0.109017
C 1.752906 3.298869 -1.461940
C 3.384921 0.411773 -1.393283
C 3.658813 -1.086464 -1.536589
C 2.488890 0.922025 2.794541
H 3.405086 -0.566082 1.495389
H 4.189252 1.040881 1.400887
H 1.459450 3.034145 0.677371
H 3.183165 3.087448 0.191992
H 2.926394 0.803094 -2.325044
H 4.326015 0.982902 -1.231656
H 0.777172 2.882679 -1.780225
H 1.639777 4.399857 -1.392018
H 2.499859 3.094715 -2.255813
H 4.117242 -1.516788 -0.622331
H 2.717590 -1.638366 -1.731672
H 4.354125 -1.281468 -2.378601
H 2.310222 2.015191 2.850939
H 1.502286 0.417902 2.854485
H 3.084426 0.635039 3.685318
C -1.805527 -0.948649 0.064782
C -4.089844 -1.032843 0.564184
C -3.801854 -1.981851 -0.610485
H -4.669614 -1.508048 1.381818
H -4.454392 -1.798236 -1.488830
C -1.733112 -2.251280 -2.054408
H -2.271313 -2.005097 -2.994658
H -0.710112 -1.826847 -2.096900
H -1.670318 -3.360923 -1.967707
C -2.550993 0.201290 2.145923
H -2.998811 -0.257278 3.052905
H -1.463548 0.341516 2.297389
H -3.019516 1.194727 1.968088
N -2.737687 -0.671434 1.005885
N -2.403029 -1.669084 -0.917143
H -3.905967 -3.056673 -0.328838
H -4.629332 -0.111997 0.243184
C 0.893433 -1.834699 0.362444
N 1.385379 -2.895055 0.686133
C 1.957619 -4.131474 0.287837
H 2.084079 -4.808725 1.157720
H 2.961563 -3.979504 -0.168190
H 1.321848 -4.655487 -0.460899
N -0.884542 1.586961 -0.306395
C -1.833519 2.323557 -0.330831
S -3.120413 3.304331 -0.337833
