28

Ir -0.012313 0.036715 -0.008828
N -2.053317 -0.010596 0.001976
C -2.744404 -1.108661 -0.422067
C -4.143318 -1.130181 -0.410290
N -4.898332 -0.101938 0.010761
C -4.209594 0.971699 0.432600
C -2.812933 1.036506 0.436381
H -2.140895 -1.967232 -0.746431
H -4.667850 -2.034622 -0.764516
H -4.789023 1.839449 0.793471
H -2.275628 1.929233 0.782720
N 2.057824 -0.002641 -0.004006
C 4.876414 -0.091014 0.011604
C 4.125421 -1.107791 -0.594904
C 2.729493 -1.036966 -0.581553
C 2.788025 0.983206 0.585697
C 4.184839 0.970615 0.613597
H 5.976256 -0.125353 0.017179
H 4.610023 -1.967628 -1.079482
H 2.099687 -1.824415 -1.017077
H 2.211407 1.800440 1.039754
H 4.716944 1.795583 1.108820
C -0.000982 1.891834 -0.363138
N 0.023793 3.108208 -0.474343
H 0.033110 3.705014 -1.303905
C 0.016686 -1.969885 0.385859
C 0.053780 -3.189459 0.617680
H 0.083695 -4.248164 0.839727
