25

Ir 0.098213 0.032195 0.000900
N -1.948385 -0.004112 0.003047
C -2.646280 -1.095291 -0.433052
C -4.045270 -1.108870 -0.433002
N -4.798417 -0.078659 -0.015425
C -4.107252 0.988724 0.416372
C -2.710869 1.044110 0.434682
H -2.057170 -1.959615 -0.766554
H -4.569280 -2.010215 -0.794977
H -4.683149 1.859868 0.774187
H -2.181734 1.933592 0.800026
N 2.160012 -0.064576 -0.003567
C 4.472181 0.496800 -0.012208
O 4.235271 -0.942559 0.017988
C 2.916140 -1.124228 0.022493
C 3.057363 1.114702 -0.035963
H 2.852234 1.706012 -0.950330
H 2.845222 1.761102 0.838414
H 5.075146 0.719977 -0.914311
H 5.061584 0.759063 0.888515
H 2.536321 -2.156831 0.054342
C 0.136937 1.899742 -0.155953
O 0.180165 3.066694 -0.242243
C 0.113552 -2.008306 0.190334
N 0.174776 -3.185413 0.277828
