29

Ir -0.145352 -0.158486 -0.034439
N -2.214541 -0.208281 -0.059772
C -4.384415 0.383818 -0.251821
C -3.085504 0.845136 -0.303802
N -4.287200 -0.965521 0.026596
C -2.973691 -1.296596 0.137963
H -5.062875 -1.620077 0.126517
H -5.343679 0.891081 -0.389253
H -2.714297 1.854085 -0.502464
H -2.583124 -2.302021 0.334165
N 1.904407 -0.213739 -0.049240
C 4.737895 -0.313665 -0.090089
C 4.038022 0.707404 -0.750607
C 2.642630 0.725855 -0.711449
C 2.591004 -1.208142 0.589473
C 3.985618 -1.284378 0.587250
H 5.837193 -0.353265 -0.106441
H 4.564283 1.496979 -1.306719
H 2.067540 1.508586 -1.223285
H 1.973474 -1.963684 1.092966
H 4.468832 -2.115418 1.121239
C -0.135766 1.739426 0.041753
N -0.119871 2.945275 0.084210
C -0.066632 4.212217 0.712444
H 0.879127 4.736855 0.458078
H -0.126562 4.124508 1.819826
H -0.902302 4.858536 0.369237
C -0.183445 -2.202999 0.033946
N -0.262765 -3.380762 0.125003
