37

Ir 0.319397 -0.131436 0.044910
C -1.656113 -0.160380 0.037176
C -3.848121 0.162543 0.597747
C -3.817767 -0.678642 -0.482276
H -4.690154 0.562058 1.170851
H -4.628829 -1.162434 -1.034788
C -2.008381 -1.719652 -1.890178
H -1.052702 -1.306887 -2.264853
H -1.810373 -2.743053 -1.514247
H -2.761707 -1.742815 -2.700902
C -2.112388 1.316454 2.006745
H -1.041586 1.110662 2.198770
H -2.232609 2.390015 1.752937
H -2.709673 1.082575 2.909634
N -2.528104 0.465933 0.904707
N -2.483071 -0.859469 -0.815565
N 2.587953 -0.303325 0.102249
C 3.022896 -1.194758 -0.999896
C 3.259516 1.005256 -0.044623
C 2.975717 -0.898415 1.404296
H 2.982173 1.458603 -1.014206
H 4.368113 0.886551 -0.001641
H 2.934356 1.683895 0.765343
H 2.495218 -1.887793 1.512161
H 2.623507 -0.243476 2.223219
H 4.084491 -1.008753 1.468581
H 2.705637 -0.759482 -1.966091
H 2.540905 -2.182332 -0.882659
H 4.132692 -1.313271 -0.992954
C 0.316177 1.744086 -0.244638
N 0.275895 2.941745 -0.387164
C 0.231241 4.163022 -1.096229
H 1.145013 4.766335 -0.904896
H -0.638165 4.776333 -0.775274
H 0.149304 4.000603 -2.194325
C 0.283562 -2.164612 0.286033
N 0.280580 -3.344340 0.387537
