28

Ir -0.266584 0.167552 0.031546
N -2.380913 0.127849 -0.094156
C -4.665110 -0.511695 -0.029445
O -4.478935 0.885874 -0.426427
C -3.167539 1.117368 -0.380109
C -3.233386 -1.075361 0.067915
H -2.984303 -1.795124 -0.738373
H -2.993380 -1.569476 1.027690
H -5.295936 -0.998744 -0.797338
H -5.208378 -0.509253 0.937545
H -2.833865 2.144136 -0.590735
P 1.961358 0.074901 -0.007013
C 5.087872 -0.068886 -0.123475
C 4.350356 -1.258949 -0.271934
C 2.953347 -1.332252 -0.242570
C 3.094012 1.383058 0.138036
C 4.478796 1.184450 0.067115
H 6.186353 -0.120533 -0.163610
H 4.906805 -2.198796 -0.427148
H 2.428109 -2.288685 -0.388041
H 2.687066 2.395694 0.282140
H 5.130163 2.069274 0.166409
C -0.233040 2.029992 0.107028
N -0.235315 3.249296 0.128826
H -0.247829 3.908817 0.909314
N -0.346779 -1.952305 0.165742
O 0.090948 -2.665170 -0.753227
O -0.851893 -2.451026 1.187164
