32

Ir -0.161051 0.117249 -0.011508
N -2.288902 0.055671 0.024090
C -4.514101 -0.673966 0.357635
O -4.432260 0.447843 -0.576568
C -3.121934 0.699080 -0.727088
C -3.091567 -0.791253 0.934646
H -2.668553 -1.815050 0.941152
H -2.996376 -0.384940 1.963577
H -4.824098 -1.568015 -0.224076
H -5.296735 -0.440401 1.104470
H -2.838458 1.456787 -1.472188
C 1.824338 0.022263 -0.045928
C 3.970956 -0.776657 -0.540599
C 4.086552 0.363744 0.483417
H 4.181617 -1.773102 -0.084740
H 4.532018 1.287075 0.041168
C 2.325124 1.528224 1.877003
H 2.631362 2.568217 1.617202
H 1.224405 1.490475 1.995557
H 2.809588 1.251565 2.837868
C 2.023819 -1.583609 -1.937220
H 1.972397 -2.630354 -1.565403
H 0.993361 -1.253404 -2.170828
H 2.649006 -1.544475 -2.853952
N 2.565673 -0.690711 -0.936780
N 2.687418 0.593098 0.840494
H 4.690983 0.091610 1.373482
H 4.645890 -0.652768 -1.412650
C -0.178296 1.867018 -0.528545
N -0.242788 3.009990 -0.984631
H -0.229118 3.863133 -0.417134
Cl -0.153966 -2.191921 0.704885
