33

Ir -0.266950 -0.309794 0.021985
P 1.845408 -1.324095 -0.009385
C 2.949654 -0.829750 1.379726
C 2.837858 -0.886141 -1.497772
C 1.892733 -3.164830 0.025683
H 3.094940 0.268070 1.344371
H 3.933713 -1.335887 1.304239
H 2.467296 -1.090581 2.341339
H 2.965864 0.214026 -1.523300
H 2.289156 -1.199139 -2.406779
H 3.833204 -1.374987 -1.472067
H 1.429642 -3.519882 0.966873
H 2.932883 -3.542598 -0.040293
H 1.295327 -3.559041 -0.819117
P -2.295596 0.837540 -0.012646
C -2.163165 2.669142 -0.099374
C -3.382635 0.547084 1.449097
C -3.389211 0.400136 -1.430049
H -1.589436 3.029174 0.776068
H -3.164967 3.143268 -0.120726
H -1.592425 2.944875 -1.006780
H -2.844436 0.857527 2.365460
H -3.595101 -0.537404 1.522241
H -4.336228 1.107971 1.367182
H -2.864994 0.643516 -2.374367
H -4.354256 0.945276 -1.386463
H -3.571560 -0.692313 -1.409932
C -1.177492 -1.913064 0.017622
N -1.789171 -2.970013 -0.103604
H -2.108125 -3.596634 0.639308
N 0.789730 1.438336 0.025370
C 1.641436 2.286552 0.012974
S 2.801779 3.407137 -0.001840
