30

Ir 0.167331 -0.050045 -0.026347
C -1.822173 -0.080160 0.056266
C -3.994763 0.489732 0.480423
C -4.004301 -0.708634 -0.183003
H -4.815114 1.096523 0.875217
H -4.835559 -1.352121 -0.486526
C -2.250735 -2.245450 -1.133024
H -2.083453 -2.027306 -2.207883
H -1.304549 -2.578254 -0.656487
H -3.033424 -3.021405 -1.032210
C -2.215713 2.054451 1.318527
H -1.276098 1.822071 1.853182
H -2.004969 2.875812 0.605509
H -2.995806 2.370498 2.037158
N -2.664245 0.855325 0.625025
N -2.681329 -1.044410 -0.426503
N 2.297244 -0.126199 0.041366
C 4.377085 -0.707382 0.687362
C 3.032785 -0.983346 0.843946
N 4.441394 0.332531 -0.220874
C 3.170614 0.659445 -0.590838
H 5.290124 0.788274 -0.555794
H 5.270551 -1.145891 1.141631
H 2.520062 -1.714071 1.479215
H 2.906752 1.475106 -1.272262
C 0.188798 1.658686 -0.671552
N 0.296991 2.823836 -1.087943
H 0.143146 3.042408 -2.080545
O 0.205305 -2.006125 0.598095
H 0.971424 -2.440819 0.177633
