54

Ir 0.126028 -0.157526 -0.058346
P -2.032496 -1.088675 -0.009014
C -3.035167 -0.972161 -1.572991
C -3.127494 -0.287476 1.259420
C -2.522594 -0.275876 2.665264
C -2.154627 -2.897178 0.419263
C -1.695673 -3.854047 -0.684432
C -3.167677 0.433146 -2.163557
H -2.532531 -1.645134 -2.298767
H -4.030702 -1.419563 -1.353801
H -3.301800 0.751689 0.910255
H -4.108751 -0.810495 1.234527
H -1.530282 -3.025413 1.327730
H -3.206199 -3.106429 0.712853
H -1.540159 0.238503 2.658031
H -3.188210 0.258688 3.372887
H -2.363888 -1.299825 3.062100
H -2.399001 -3.865855 -1.540897
H -0.697465 -3.572648 -1.075884
H -1.628930 -4.892477 -0.300126
H -3.661045 1.144948 -1.471860
H -2.172955 0.855650 -2.404449
H -3.768081 0.401178 -3.095577
P 2.201759 0.918338 -0.004042
C 2.143288 2.774436 0.070533
C 3.382433 0.599413 -1.408397
C 3.686456 -0.874167 -1.683019
C 3.200521 0.460157 1.495492
C 2.473325 0.749128 2.811457
C 1.737115 3.458218 -1.238174
H 1.406450 3.008293 0.866147
H 3.137478 3.128393 0.421653
H 2.913619 1.063100 -2.300798
H 4.312121 1.173194 -1.197362
H 3.400691 -0.628047 1.400208
H 4.180146 0.983866 1.439535
H 2.757794 -1.424967 -1.933283
H 4.387691 -0.976137 -2.536234
H 4.152587 -1.374631 -0.809514
H 2.295833 1.834128 2.956641
H 1.485650 0.243661 2.826048
H 3.064502 0.389043 3.678017
H 2.522053 3.369736 -2.016289
H 0.797124 3.029265 -1.636840
H 1.558832 4.538844 -1.067021
C 0.971226 -1.799645 0.143128
N 1.521499 -2.841543 0.431770
C 2.161081 -4.040046 0.021530
H 1.436985 -4.738471 -0.453902
H 2.611424 -4.564780 0.889250
H 2.971787 -3.836518 -0.713466
N -0.834012 1.642961 -0.105620
C -1.567324 2.587719 -0.001207
S -2.576724 3.842131 0.128108
