34

Ir 0.000008 -0.109725 -0.013395
P -2.302529 -0.366892 -0.003046
C -2.835178 -1.365852 1.448267
C -2.861320 -1.396204 -1.424815
C -3.414939 1.100071 -0.020292
H -2.151074 -2.237948 1.464392
H -3.892196 -1.693523 1.374320
H -2.681776 -0.781037 2.375621
H -2.226829 -2.304459 -1.410084
H -2.674677 -0.851966 -2.370534
H -3.933100 -1.672536 -1.349257
H -3.211917 1.712457 0.879966
H -4.484421 0.807424 -0.037294
H -3.180561 1.714131 -0.911821
P 2.302614 -0.366606 -0.003086
C 2.861103 -1.396829 -1.424293
C 2.835511 -1.364579 1.448816
C 3.415006 1.100356 -0.021395
H 2.226415 -2.304936 -1.408874
H 3.932845 -1.673301 -1.348728
H 2.674416 -0.853105 -2.370300
H 2.151602 -2.236813 1.465494
H 2.682068 -0.779207 2.375810
H 3.892582 -1.692116 1.374995
H 3.180766 1.713698 -0.913453
H 4.484486 0.807676 -0.038017
H 3.211888 1.713475 0.878343
C -0.000209 1.714965 -0.187637
N -0.000303 2.918900 -0.387443
C -0.000438 4.168121 0.300207
H -0.891921 4.770828 0.020918
H 0.890656 4.771225 0.020544
H -0.000185 4.047339 1.407274
F 0.000442 -2.146512 0.182562
