25

Ir -0.039530 0.049901 0.008345
N -2.104187 -0.018789 -0.018468
C -4.276588 0.573517 -0.170224
C -2.981007 1.046723 -0.176831
N -4.172087 -0.793564 -0.005856
C -2.856692 -1.124905 0.083482
H -4.944150 -1.458452 0.037372
H -5.238347 1.084981 -0.269127
H -2.615134 2.071335 -0.287436
H -2.462323 -2.140778 0.199918
N 2.002964 0.014838 -0.024935
C 4.257712 -0.729322 0.008791
O 4.144176 0.693187 -0.298606
C 2.832238 0.962396 -0.346610
C 2.822185 -1.162279 0.363369
H 2.666051 -1.355685 1.444038
H 2.471032 -2.057902 -0.181873
H 4.986491 -0.842800 0.834338
H 4.656035 -1.235317 -0.895284
H 2.538986 1.980048 -0.638857
C -0.032761 1.913679 0.175160
N -0.003621 3.136892 0.231482
H 0.001057 3.748184 1.051294
C -0.042642 -2.012134 -0.031060
N -0.080775 -3.194741 -0.037162
