28

Ir -0.010317 -0.036575 0.024061
N 2.048055 -0.115274 0.062754
C 4.207795 0.319874 0.539769
C 2.905173 0.709128 0.778097
N 4.122185 -0.750258 -0.330327
C 2.811508 -0.987907 -0.606889
H 4.903437 -1.286181 -0.707045
H 5.162171 0.703741 0.911626
H 2.520910 1.515528 1.409279
H 2.398198 -1.793816 -1.229603
N -2.069837 -0.040268 0.001109
C -4.221927 0.525505 -0.363058
C -2.910769 0.896919 -0.581682
N -4.158254 -0.649533 0.360908
C -2.851970 -0.965124 0.572302
H -4.950863 -1.201446 0.687400
H -5.168587 0.987454 -0.657746
H -2.512085 1.764812 -1.113926
H -2.456312 -1.858740 1.075144
C 0.034862 1.819742 0.114484
N 0.072543 3.025261 0.233686
C 0.219840 4.307821 -0.355715
H 1.081854 4.848202 0.091193
H -0.681581 4.930959 -0.171095
H 0.382891 4.248680 -1.455159
N -0.043795 -2.172462 -0.126302
O -0.692259 -2.853282 0.697504
O 0.586134 -2.756835 -1.033681
