26

Ir -0.000017 0.034529 0.006987
N -2.061635 -0.088574 0.007203
C -4.871852 -0.386188 -0.009233
C -4.023879 -1.501064 -0.079032
C -2.639066 -1.323907 -0.068564
C -2.887604 0.994139 0.077003
C -4.279248 0.882340 0.070908
H -5.965997 -0.501726 -0.017082
H -4.425396 -2.522910 -0.142678
H -1.917570 -2.155019 -0.107889
H -2.401091 1.976532 0.136358
H -4.885441 1.797881 0.129163
N 2.061627 -0.088584 0.007204
C 4.871885 -0.386180 -0.009296
C 4.023913 -1.501010 -0.079757
C 2.639097 -1.323864 -0.069275
C 2.887627 0.994078 0.077735
C 4.279272 0.882290 0.071583
H 5.966032 -0.501712 -0.017225
H 4.425449 -2.522817 -0.143915
H 1.917625 -2.154958 -0.109113
H 2.401147 1.976439 0.137738
H 4.885460 1.797796 0.130389
C -0.000011 1.839816 -0.086581
O 0.000041 3.020026 -0.138344
F 0.000002 -1.976782 0.122136
