30

Ir -0.394756 0.057844 0.000535
As 1.956446 -0.110412 -0.005370
C 3.050754 1.470448 -0.356511
C 2.565393 -1.434699 -1.308542
C 2.696742 -0.815957 1.665577
H 2.794483 1.861037 -1.359584
H 4.128751 1.222163 -0.310300
H 2.806619 2.245231 0.395029
H 2.407925 -1.035930 -2.328342
H 1.910427 -2.314445 -1.159328
H 3.630621 -1.696194 -1.156882
H 2.493539 -0.097895 2.482236
H 3.786029 -0.997189 1.576184
H 2.165625 -1.763221 1.878684
N -2.589453 -0.240859 0.001213
C -3.367340 1.016275 0.001689
C -2.904542 -1.037514 -1.211093
C -2.905171 -1.038634 1.212572
H -2.674496 -0.437798 -2.111289
H -3.982152 -1.323996 -1.218247
H -2.263681 -1.938371 -1.202255
H -2.672111 -0.441421 2.113695
H -2.267897 -1.941998 1.201441
H -3.983699 -1.321532 1.220974
H -3.110995 1.610802 -0.894395
H -3.112775 1.609178 0.899371
H -4.460727 0.799176 0.000556
C -0.383828 1.867646 0.002890
O -0.356101 3.048261 0.005151
F -0.366563 -1.968166 0.002145
