31

Ir -0.459051 0.155620 -0.005454
N -2.710650 0.125704 -0.153640
C -3.242258 0.036316 1.231506
C -3.221079 1.351870 -0.814167
C -3.178471 -1.048643 -0.939141
H -2.920275 2.246693 -0.241700
H -4.332584 1.316637 -0.878792
H -2.796175 1.428314 -1.832014
H -2.929936 -1.980118 -0.403491
H -2.685429 -1.052446 -1.928906
H -4.282344 -0.994465 -1.075504
H -2.929372 0.930707 1.801891
H -2.817664 -0.866181 1.710069
H -4.355541 -0.020516 1.215097
P 1.760117 0.061947 -0.007812
C 4.889573 -0.065417 -0.049135
C 4.162134 -1.267571 -0.132734
C 2.765142 -1.350443 -0.126912
C 2.881307 1.385447 0.075507
C 4.268471 1.192648 0.045892
H 5.988914 -0.111446 -0.063911
H 4.726797 -2.211961 -0.212656
H 2.249758 -2.318461 -0.217684
H 2.465607 2.402331 0.142119
H 4.911493 2.087537 0.098976
C -0.382293 2.017067 0.074279
N -0.308449 3.232164 0.134378
H -0.310643 3.881389 0.922720
N -0.556695 -1.953943 0.192176
O -0.022448 -2.696270 -0.647788
O -1.185308 -2.426862 1.160284
