29

Ir 0.004526 0.136203 0.093293
P -2.287052 0.093904 -0.037752
C -5.402618 0.049237 -0.303259
C -4.724869 1.252606 -0.571037
C -3.334882 1.403333 -0.485690
C -3.357477 -1.244100 0.244172
C -4.743430 -1.132673 0.084737
H -6.498784 0.031619 -0.399999
H -5.322128 2.130876 -0.868549
H -2.866265 2.373255 -0.714669
H -2.889386 -2.188191 0.564009
H -5.355551 -2.029246 0.279826
P 2.293734 0.077596 -0.017659
C 5.414488 0.029416 -0.233318
C 4.709718 -1.179202 -0.389525
C 3.316796 -1.293283 -0.318523
C 3.391655 1.414413 0.128288
C 4.778650 1.260463 0.009507
H 6.512240 0.011335 -0.309578
H 5.288949 -2.097148 -0.585615
H 2.811126 -2.259214 -0.471551
H 2.958772 2.409889 0.312276
H 5.408463 2.160177 0.111651
C 0.005241 2.009506 0.214123
N 0.001522 3.222589 0.243026
H -0.085803 3.921146 0.980950
N -0.023280 -1.993626 0.109575
O 0.507223 -2.631087 -0.812279
O -0.579432 -2.562119 1.062753
