29

Ir 0.502760 0.011958 -0.012144
N 2.714216 -0.273122 0.021519
C 3.490427 0.984608 0.011032
C 3.010012 -1.044343 1.256332
C 3.053390 -1.094932 -1.168106
H 2.760395 -0.428849 2.140696
H 4.089091 -1.322107 1.288711
H 2.376163 -1.949894 1.252833
H 2.838577 -0.516085 -2.085853
H 2.415641 -1.997667 -1.151036
H 4.131915 -1.375746 -1.149475
H 3.211917 1.603112 0.883816
H 3.259971 1.555227 -0.907352
H 4.582747 0.767099 0.043460
P -1.699932 -0.012640 -0.006243
C -4.813923 -0.269724 0.019687
C -4.041703 -1.447037 -0.029893
C -2.643212 -1.469427 -0.045817
C -2.865290 1.270169 0.055437
C -4.243720 1.015660 0.061347
H -5.910707 -0.358998 0.028685
H -4.571828 -2.414394 -0.057255
H -2.074744 -2.411412 -0.081703
H -2.485947 2.302844 0.098750
H -4.924036 1.883244 0.103985
C 0.534719 1.839215 -0.036161
N 0.558567 3.064007 0.057789
H 0.565655 3.730279 -0.718879
F 0.525326 -2.004350 0.004561
