32

Ir 0.287210 0.126040 0.013077
N 2.484749 0.117256 0.022526
C 3.068516 1.481972 -0.013681
C 2.958453 -0.555476 1.263925
C 2.979751 -0.629096 -1.166760
H 2.580751 0.001120 2.141336
H 4.072603 -0.578026 1.284372
H 2.554413 -1.583612 1.293272
H 2.622188 -0.123358 -2.082681
H 2.570456 -1.655519 -1.144081
H 4.093798 -0.657147 -1.163665
H 2.723874 2.059300 0.862835
H 2.740707 2.000484 -0.932749
H 4.180585 1.421440 -0.002810
N -1.746921 0.036530 0.004508
C -4.564077 -0.145103 0.021737
C -3.796160 -0.896512 -0.879453
C -2.403311 -0.783935 -0.864703
C -2.494023 0.766526 0.879947
C -3.888939 0.701232 0.914172
H -5.661993 -0.216794 0.028858
H -4.265278 -1.577696 -1.604007
H -1.764184 -1.362883 -1.544173
H -1.928486 1.413994 1.563233
H -4.433094 1.314015 1.647370
C 0.190309 1.957265 0.031245
N 0.053194 3.161590 0.151664
C -0.036704 4.390058 -0.565124
H 0.851944 5.026739 -0.362728
H -0.926797 4.968125 -0.238076
H -0.109362 4.234180 -1.664515
Br 0.296077 -2.437677 0.055217
