34

Ir -0.036967 0.160362 0.074679
As 2.401813 -0.054955 -0.040499
C 3.546002 1.405323 0.598861
C 3.086586 -0.379318 -1.846953
C 3.104993 -1.606747 0.926714
H 3.309472 2.321055 0.023701
H 4.618328 1.154814 0.481741
H 3.318918 1.594676 1.665574
H 2.899011 0.516053 -2.469501
H 2.505264 -1.229652 -2.252105
H 4.168842 -0.614041 -1.831372
H 2.927384 -1.466796 2.009957
H 4.186177 -1.747693 0.732334
H 2.525032 -2.481361 0.574703
C -2.068937 0.042978 0.049313
C -4.209226 -0.836768 0.397820
C -4.311294 0.370774 -0.549724
H -4.388975 -1.803028 -0.129085
H -4.809101 1.247073 -0.071448
C -2.518862 1.701509 -1.752426
H -2.889841 2.701546 -1.432007
H -1.412399 1.720843 -1.801289
H -2.927377 1.480737 -2.761466
C -2.280635 -1.729003 1.777700
H -2.223209 -2.742557 1.323962
H -1.253312 -1.414012 2.045458
H -2.914175 -1.765888 2.688543
N -2.815354 -0.762147 0.843781
N -2.902237 0.671962 -0.815167
H -4.857335 0.144354 -1.488766
H -4.911031 -0.781894 1.255473
C -0.005024 1.833519 0.793147
O 0.029037 2.919459 1.246739
Cl -0.032697 -2.053326 -0.912893
