38

Ir -0.214230 -0.135942 0.068039
P -2.537565 -0.340808 0.050747
C -3.184522 -0.918898 1.675732
C -3.070163 -1.690476 -1.085167
C -3.604217 1.093021 -0.400127
H -2.553087 -1.787668 1.948769
H -4.253750 -1.210141 1.627580
H -3.040989 -0.126178 2.435131
H -2.450675 -2.566568 -0.808771
H -2.836380 -1.407544 -2.129698
H -4.148967 -1.929516 -0.987662
H -3.435454 1.907370 0.331702
H -4.680028 0.824666 -0.413935
H -3.297513 1.463746 -1.397945
C 1.827741 -0.261516 0.064982
C 3.968717 -1.018918 -0.537445
C 4.114473 0.217131 0.362685
H 4.572369 -1.885687 -0.195343
H 4.755241 1.008030 -0.081364
C 2.428657 1.801606 1.342756
H 2.767040 2.753159 0.876679
H 1.335237 1.838004 1.505118
H 2.933745 1.700071 2.330630
C 1.966722 -2.444461 -1.134455
H 2.579939 -3.343149 -0.913400
H 0.943795 -2.604333 -0.741200
H 1.946415 -2.295769 -2.238242
N 2.535308 -1.300895 -0.450233
N 2.727512 0.666503 0.502375
H 4.538586 -0.033134 1.364405
H 4.255279 -0.807297 -1.594958
C -0.210878 1.594092 -0.523600
N -0.243883 2.717383 -1.003993
C -0.285252 4.088009 -0.612914
H -1.298496 4.517104 -0.778915
H 0.419916 4.693133 -1.222236
H -0.026775 4.237637 0.460684
F -0.367392 -2.078309 0.707894
