23

Ir 0.139902 0.080835 -0.004103
N -1.898326 0.023888 -0.009416
C -2.574341 -1.034928 -0.543064
C -3.973167 -1.069067 -0.544147
N -4.740653 -0.089846 -0.038582
C -4.066406 0.946983 0.485501
C -2.670628 1.020931 0.511390
H -1.961104 -1.854627 -0.941013
H -4.486130 -1.940794 -0.986152
H -4.656327 1.774445 0.916620
H -2.147823 1.880468 0.951188
N 2.213795 0.023104 -0.010185
C 4.386622 0.608780 0.103988
C 3.092896 1.076905 0.195911
N 4.274146 -0.742447 -0.161561
C 2.958416 -1.069443 -0.227274
H 5.044787 -1.399347 -0.285379
H 5.351500 1.113929 0.204342
H 2.736913 2.092527 0.390946
H 2.547019 -2.072419 -0.388831
C 0.153256 1.885484 -0.236139
O 0.172197 3.056260 -0.357329
Cl 0.155208 -2.292078 0.374947
