42

Ir 0.058024 0.111896 0.037198
P -2.246320 -0.091904 -0.027405
C -3.073067 -0.764536 1.501270
C -2.830133 -1.233278 -1.369971
C -2.386657 -0.798140 -2.768568
C -3.228690 1.459373 -0.347005
C -3.294071 2.436702 0.829096
C -2.656169 -2.177392 1.911690
H -2.826866 -0.042166 2.307300
H -4.171436 -0.698109 1.331953
H -2.382217 -2.217058 -1.118324
H -3.935788 -1.327755 -1.292648
H -2.742818 1.940403 -1.220990
H -4.249400 1.153026 -0.665102
H -1.282802 -0.695186 -2.805758
H -2.691872 -1.546051 -3.528734
H -2.827524 0.176143 -3.064025
H -3.883954 2.030120 1.674931
H -2.281852 2.679176 1.208554
H -3.773545 3.388045 0.519745
H -2.939941 -2.930887 1.149967
H -1.558946 -2.249181 2.042756
H -3.147901 -2.462444 2.864497
As 2.489201 0.015006 0.046105
C 3.263105 -0.845459 -1.534400
C 3.275676 -1.045610 1.493247
C 3.512695 1.687147 0.150325
H 2.786361 -1.839950 -1.626763
H 4.361843 -0.945874 -1.435691
H 3.014093 -0.242153 -2.427880
H 2.801698 -2.044945 1.454843
H 3.031451 -0.568757 2.461382
H 4.373944 -1.127943 1.374978
H 3.180043 2.357508 -0.665014
H 4.599961 1.494600 0.065458
H 3.294181 2.177040 1.118599
C 0.047694 1.992557 -0.039899
N 0.092105 3.194729 -0.264570
H 0.080440 3.986908 0.379770
C 0.203110 -1.932622 -0.036134
C 0.357521 -3.162699 -0.127032
H 0.465322 -4.236491 -0.202206
