32

Ir -0.455611 -0.195373 0.000043
As 1.908512 -0.312133 -0.000036
C 2.731727 -2.085946 0.000641
C 2.777252 0.574202 1.516231
C 2.776831 0.572957 -1.517267
H 2.394454 -2.636638 0.899020
H 3.835560 -2.000769 -0.000124
H 2.393291 -2.637899 -0.896521
H 2.396923 0.132908 2.456390
H 2.516518 1.649464 1.488813
H 3.876514 0.452732 1.454089
H 2.396711 0.130441 -2.456938
H 3.876164 0.452192 -1.455034
H 2.515437 1.648085 -1.491001
N -2.658553 0.199904 -0.000051
C -3.463002 -1.043896 -0.000006
C -2.981552 0.990849 1.213495
C -2.981308 0.990596 -1.213817
H -2.736629 0.395194 2.112398
H -4.064580 1.254856 1.225727
H -2.367911 1.909658 1.217073
H -2.736041 0.394849 -2.112566
H -2.367822 1.909509 -1.217393
H -4.064373 1.254467 -1.226427
H -3.223380 -1.642575 0.897632
H -3.223278 -1.642694 -0.897540
H -4.550828 -0.801896 -0.000106
C -0.592905 -2.014909 0.000129
O -0.635017 -3.192468 0.000233
N -0.229724 1.851685 0.000024
C 0.423990 2.871922 0.000091
O 1.048280 3.895774 0.000219
