43

Ir 0.146347 -0.005769 -0.065010
P -2.200100 -0.103443 -0.011452
C -2.900354 -0.107962 1.713352
C -2.910353 -1.653657 -0.751771
C -2.795181 -1.739138 -2.276009
C -3.183710 1.237434 -0.853641
C -3.051025 2.633339 -0.239832
C -2.337078 -1.238665 2.578164
H -2.628634 0.878040 2.146107
H -4.010599 -0.146070 1.652671
H -2.324727 -2.478556 -0.297077
H -3.964763 -1.741352 -0.407516
H -2.823184 1.242825 -1.903372
H -4.246890 0.909155 -0.879493
H -1.726213 -1.690361 -2.560667
H -3.206687 -2.703805 -2.639083
H -3.352502 -0.930002 -2.791107
H -3.478429 2.676037 0.782946
H -1.992943 2.953216 -0.168115
H -3.596765 3.380192 -0.852583
H -2.637947 -2.236472 2.198784
H -1.227616 -1.203758 2.577428
H -2.693439 -1.158065 3.625812
C 2.188988 -0.085714 -0.095527
C 4.336396 -0.757936 0.286290
C 4.390117 0.467800 -0.325558
H 5.135614 -1.423826 0.626011
H 5.245978 1.078920 -0.628160
C 2.680308 2.107747 -1.187363
H 1.720490 1.938950 -1.710709
H 2.515181 2.897387 -0.427817
H 3.461360 2.424451 -1.904544
C 2.486833 -2.282711 1.068370
H 2.391062 -2.119925 2.161359
H 1.490056 -2.509517 0.640967
H 3.182823 -3.123581 0.882710
N 2.992778 -1.082263 0.411456
N 3.078514 0.856051 -0.556654
C 0.176338 1.610602 0.801278
N 0.234762 2.752987 1.276525
H 0.304504 2.922467 2.286407
O 0.079293 -1.832841 -1.002603
H 0.932647 -2.012065 -1.438420
