33

Ir 0.462901 -0.000237 -0.013547
N 0.341299 -2.170875 -0.004033
C 1.662699 -2.848603 -0.021563
C -0.380454 -2.593255 1.228931
C -0.422952 -2.614498 -1.203361
H 0.189970 -2.254739 2.112922
H -0.481347 -3.702540 1.249490
H -1.381075 -2.128161 1.248516
H 0.112147 -2.285031 -2.112616
H -1.426131 -2.155198 -1.193481
H -0.517234 -3.724429 -1.204677
H 2.254955 -2.537638 0.856902
H 2.212392 -2.562359 -0.935820
H 1.521727 -3.952713 -0.005967
N 0.345051 2.170535 -0.004045
C 1.667590 2.846013 -0.021559
C -0.418501 2.615482 -1.203300
C -0.376018 2.594063 1.228964
H 0.116081 2.285344 -2.112620
H -0.511107 3.725556 -1.204485
H -1.422373 2.157681 -1.193497
H 0.193808 2.254503 2.112936
H -1.377411 2.130610 1.248441
H -0.475042 3.703511 1.249576
H 2.216838 2.558740 -0.935760
H 2.259247 2.534097 0.856971
H 1.528503 3.950363 -0.006067
C 2.291035 -0.001837 0.017572
N 3.512956 -0.002931 0.171161
H 4.219551 -0.003699 -0.569241
N -1.590835 0.001540 -0.019891
C -2.794870 0.001989 0.000607
S -4.406708 0.002521 0.026345
