25

Ir 0.281292 -0.265050 -0.026694
N 2.415927 -0.321347 0.003080
C 4.535811 -1.023957 0.287116
C 3.209225 -1.384117 0.404324
N 4.526477 0.272052 -0.195101
C 3.238065 0.668172 -0.358251
H 5.345203 0.847137 -0.395231
H 5.460774 -1.565583 0.505476
H 2.769957 -2.327017 0.744265
H 2.907229 1.659205 -0.692315
P -1.942553 -0.177230 -0.003914
C -5.079288 -0.115798 0.034099
C -4.428608 -1.358044 0.143540
C -3.037596 -1.519891 0.137655
C -2.984017 1.208420 -0.121406
C -4.378849 1.098721 -0.090871
H -6.179432 -0.092251 0.049061
H -5.050693 -2.263855 0.243041
H -2.596010 -2.523729 0.235511
H -2.490824 2.188087 -0.214605
H -4.965043 2.030158 -0.169987
C 0.218258 -2.093232 -0.151190
N 0.198458 -3.319066 -0.133110
H 0.166050 -3.942264 -0.944703
Br 0.410502 2.278694 0.094842
