30

Ir 0.000016 0.024805 0.000004
N 2.139009 -0.192877 0.000010
C 2.896219 1.081086 0.000042
C 2.491994 -0.980309 1.213829
C 2.492231 -0.980466 -1.213584
H 2.236006 -0.390697 2.113041
H 3.581098 -1.216195 1.214812
H 1.892731 -1.908716 1.203568
H 2.236345 -0.391032 -2.112951
H 1.893002 -1.908898 -1.203305
H 3.581344 -1.216298 -1.214386
H 2.629398 1.668753 0.896913
H 2.629718 1.668632 -0.897007
H 3.991119 0.877405 0.000229
N -2.139061 -0.192914 0.000014
C -2.896401 1.080967 0.000368
C -2.492040 -0.980234 -1.213830
C -2.492002 -0.980713 1.213571
H -2.236013 -0.390574 -2.113006
H -3.581137 -1.216141 -1.214876
H -1.892766 -1.908641 -1.203641
H -2.236239 -0.391263 2.112955
H -1.892577 -1.909010 1.203182
H -3.581069 -1.216802 1.214425
H -2.630042 1.668784 -0.896545
H -2.629611 1.668472 0.897356
H -3.991280 0.877171 0.000578
C -0.000103 1.826953 -0.000020
O -0.000089 3.010234 -0.000221
F 0.000046 -2.006665 -0.000261
