29

Ir -0.196205 -0.403303 -0.021824
P 2.008919 -0.931936 0.019404
C 2.889943 -0.300125 1.510834
C 2.997184 -0.214625 -1.362685
C 2.460711 -2.717171 -0.019130
H 2.790463 0.802809 1.539610
H 3.964445 -0.574070 1.483789
H 2.416566 -0.721978 2.418056
H 2.918821 0.889804 -1.324196
H 2.582251 -0.565047 -2.327164
H 4.062787 -0.511558 -1.281670
H 1.966001 -3.237495 0.823414
H 3.559146 -2.848622 0.049166
H 2.092605 -3.164373 -0.962732
N -2.213216 0.295481 -0.003472
C -4.456852 0.415571 0.146521
C -3.372331 -0.437816 0.182358
N -3.930023 1.676029 -0.064322
C -2.577293 1.572268 -0.150768
H -4.458259 2.545623 -0.140447
H -5.530740 0.236772 0.253888
H -3.339665 -1.521699 0.331723
H -1.883224 2.405645 -0.304536
C -0.710243 -2.165474 -0.053387
N -1.067079 -3.338251 0.030325
H -1.227972 -3.982466 -0.748657
N 0.410057 1.561873 -0.014885
C 1.101749 2.546394 0.003460
S 2.041585 3.857496 0.025148
