38

Ir 0.211290 -0.225481 -0.011675
N 2.343371 -0.104321 -0.031759
C 2.964695 0.994735 -0.530759
C 4.363098 1.077944 -0.563676
N 5.166438 0.102409 -0.111605
C 4.541674 -0.977507 0.384259
C 3.147170 -1.096446 0.429538
H 2.307317 1.804887 -0.878353
H 4.843053 1.981082 -0.978893
H 5.170226 -1.798953 0.769763
H 2.658887 -1.993870 0.834601
P -2.086971 -0.147483 -0.015722
C -2.994516 -1.742778 0.296126
C -2.862692 0.462784 -1.591283
C -2.405830 1.840682 -2.073017
C -2.789163 0.974280 1.288109
C -2.316416 0.640123 2.704871
C -3.016112 -2.741831 -0.864151
H -2.511540 -2.191194 1.189046
H -4.029266 -1.466858 0.594629
H -2.623782 -0.308291 -2.352943
H -3.963832 0.429647 -1.432919
H -2.496994 2.009134 1.016835
H -3.896205 0.918322 1.198207
H -1.313791 1.854115 -2.254952
H -2.919582 2.102649 -3.020125
H -2.627410 2.643586 -1.341833
H -2.625030 -0.377851 3.019243
H -1.210937 0.691612 2.769053
H -2.739820 1.358167 3.435859
H -3.589955 -2.357686 -1.730807
H -1.997293 -2.998735 -1.212586
H -3.499777 -3.686469 -0.542892
C 0.219018 -2.053178 0.027404
O 0.229813 -3.228138 0.101375
N 0.210678 1.822140 0.042947
C -0.243064 2.925796 0.245988
O -0.678515 4.027108 0.428168
