32

Ir 0.003099 0.048699 0.018919
N 2.054948 -0.006380 0.037967
C 4.872575 -0.177037 0.059465
C 4.088133 -1.078941 0.792361
C 2.695418 -0.967160 0.762183
C 2.818639 0.867359 -0.674802
C 4.214027 0.813063 -0.685816
H 5.970767 -0.243192 0.068080
H 4.544034 -1.877032 1.395843
H 2.042326 -1.656014 1.313576
H 2.266824 1.622665 -1.250154
H 4.772708 1.547099 -1.284356
N -2.049510 -0.022471 0.013968
C -4.864048 -0.225511 0.037698
C -4.086656 -1.054921 -0.783129
C -2.694828 -0.928591 -0.773259
C -2.805776 0.783326 0.810677
C -4.200089 0.709927 0.846060
H -5.961361 -0.305356 0.047825
H -4.547342 -1.807153 -1.439598
H -2.046160 -1.562778 -1.391456
H -2.249924 1.500532 1.429701
H -4.753352 1.386438 1.513464
C -0.014870 1.898946 0.103352
N -0.045621 3.104675 0.243512
C -0.064489 4.379688 -0.385919
H 0.808955 4.986697 -0.064964
H -0.974509 4.945702 -0.093211
H -0.047997 4.303156 -1.496206
N 0.012635 -1.988399 -0.081980
C 0.022082 -3.195223 -0.136819
O 0.031070 -4.394017 -0.191483
