44

Ir 0.290752 -0.066671 0.027599
P -2.039041 -0.215659 -0.024218
C -2.861834 -0.858471 1.517678
C -2.649077 -1.371088 -1.344289
C -2.176912 -0.988320 -2.748865
C -3.007740 1.340840 -0.368825
C -3.034960 2.357629 0.775486
C -2.337036 -2.203199 2.024106
H -2.705493 -0.073723 2.287101
H -3.955314 -0.896392 1.312058
H -2.241686 -2.365491 -1.067128
H -3.757952 -1.424085 -1.276719
H -2.535644 1.782822 -1.270982
H -4.039616 1.042149 -0.656671
H -1.069780 -0.924331 -2.776739
H -2.498989 -1.746348 -3.491647
H -2.582193 -0.008275 -3.075493
H -3.624787 1.991420 1.639544
H -2.013986 2.587078 1.140471
H -3.498880 3.309285 0.443371
H -2.461024 -3.012612 1.278057
H -1.255127 -2.146392 2.252052
H -2.876416 -2.504471 2.945473
P 2.604291 -0.275133 0.053935
C 3.242246 -1.283478 1.458758
C 3.618789 1.265130 0.144286
C 3.291981 -1.147725 -1.416682
H 2.960498 -0.798508 2.413256
H 4.344028 -1.401601 1.406674
H 2.749283 -2.274162 1.409418
H 3.352402 1.818667 1.065853
H 3.380293 1.906398 -0.726633
H 4.704109 1.037497 0.149688
H 2.793028 -2.134633 -1.481889
H 4.390616 -1.278067 -1.335551
H 3.047933 -0.570623 -2.329444
C 0.340405 1.843300 0.016753
N 0.404899 3.038755 -0.030871
C 0.477189 4.437396 -0.119402
H 1.393828 4.823233 0.377772
H -0.400252 4.913293 0.371037
H 0.497809 4.775713 -1.179055
C 0.328842 -2.100978 -0.083333
N 0.401578 -3.278537 -0.187519
