36

Ir -0.000002 -0.151374 -0.016996
N -2.175568 -0.253925 -0.019477
C -2.840186 1.070316 -0.100120
C -2.608469 -1.059820 -1.194520
C -2.628541 -0.922599 1.231519
H -2.259741 -0.562252 -2.117905
H -3.720189 -1.147039 -1.209573
H -2.146535 -2.061212 -1.133195
H -2.291907 -0.325428 2.098674
H -2.168163 -1.924809 1.290726
H -3.740594 -1.005904 1.239252
H -2.522363 1.590457 -1.021139
H -2.548854 1.683081 0.771684
H -3.946844 0.942121 -0.107442
N 2.175648 -0.253162 -0.019465
C 2.839820 1.071297 -0.100167
C 2.628914 -0.921638 1.231516
C 2.608785 -1.058936 -1.194509
H 2.292158 -0.324545 2.098678
H 3.740994 -1.004580 1.239185
H 2.168875 -1.923998 1.290805
H 2.259844 -0.561514 -2.117892
H 2.147205 -2.060490 -1.133143
H 3.720534 -1.145759 -1.209602
H 2.548291 1.684004 0.771610
H 2.521834 1.591297 -1.021206
H 3.946521 0.943462 -0.107482
C -0.000278 1.729959 -0.129934
N -0.000274 2.936724 -0.274426
C -0.000862 4.232631 0.301710
H -0.894322 4.809971 -0.022070
H 0.890173 4.812068 -0.024943
H 0.000955 4.199519 1.415029
C 0.000478 -2.202183 0.125118
C 0.000772 -3.444908 0.202898
H 0.001048 -4.524787 0.271125
