34

Ir -0.002197 0.054372 -0.014070
As -2.446866 0.051380 -0.062237
C -3.371172 1.775332 0.055307
C -3.325053 -1.008893 1.330118
C -3.198228 -0.731729 -1.691053
H -3.128474 2.243033 1.028691
H -4.466840 1.643495 -0.034760
H -3.000369 2.431030 -0.755505
H -2.998618 -0.641815 2.321169
H -3.016098 -2.065890 1.218942
H -4.425551 -0.926217 1.236189
H -2.873361 -0.130666 -2.561068
H -4.304127 -0.763325 -1.637818
H -2.792149 -1.756170 -1.791623
P 2.247918 -0.130881 -0.024435
C 5.365801 -0.477305 -0.056576
C 4.560146 -1.629017 0.028290
C 3.161302 -1.607466 0.050747
C 3.461187 1.109617 -0.123336
C 4.832252 0.822475 -0.129183
H 6.459569 -0.598841 -0.068072
H 5.061453 -2.610513 0.080062
H 2.578882 -2.539541 0.116466
H 3.114098 2.152737 -0.188548
H 5.536347 1.669272 -0.196477
C 0.072593 1.915424 -0.045317
N 0.089068 3.121649 -0.123075
C 0.088848 4.399900 0.492907
H -0.908528 4.880625 0.394505
H 0.824427 5.072117 0.003378
H 0.338666 4.339241 1.575450
N -0.196027 -1.986747 0.055779
C -0.711697 -3.070552 0.192637
O -1.208693 -4.156068 0.325822
