32

Ir 0.095378 -0.210920 0.017527
N 2.212935 -0.021794 -0.015246
C 2.811758 1.017946 -0.654537
C 4.206047 1.146575 -0.675787
N 5.035035 0.274412 -0.079019
C 4.433491 -0.746379 0.553877
C 3.043871 -0.908304 0.594686
H 2.133203 1.746656 -1.122585
H 4.662992 2.000463 -1.205801
H 5.080741 -1.482887 1.061564
H 2.574322 -1.757029 1.112515
C -1.907596 -0.253018 0.025412
C -4.079836 -0.661815 -0.531795
C -4.081226 0.207304 0.526014
H -4.905626 -1.103496 -1.097484
H -4.908730 0.678218 1.064992
C -2.325662 1.332902 1.926363
H -2.940626 1.150960 2.829015
H -1.263729 1.117420 2.146041
H -2.420737 2.392435 1.614490
C -2.306561 -1.811182 -1.894074
H -1.234993 -1.605150 -2.078374
H -2.429310 -2.875217 -1.605002
H -2.889617 -1.611762 -2.814091
N -2.749767 -0.929525 -0.825909
N -2.753909 0.441753 0.855798
C 0.167044 -2.004459 0.407089
N 0.216180 -3.168605 0.797905
H 0.252791 -4.009324 0.215596
N -0.010895 1.809112 -0.373228
C -0.585017 2.875427 -0.396050
O -1.119970 3.949011 -0.409968
