31

Ir 0.002827 -0.099977 0.015822
P -2.242126 -0.309899 0.018938
C -2.919667 -1.430942 1.321434
C -2.953647 -1.021237 -1.528300
C -3.243174 1.225739 0.256788
H -2.446964 -2.425146 1.198122
H -4.021780 -1.526511 1.238899
H -2.649806 -1.031536 2.317955
H -2.451066 -1.995077 -1.690908
H -2.710020 -0.353604 -2.377345
H -4.052622 -1.154219 -1.453114
H -2.953737 1.703326 1.212966
H -4.328835 1.000552 0.264518
H -3.020136 1.932908 -0.565851
N 2.138945 -0.073705 -0.006778
C 4.288899 0.570051 -0.215663
C 2.975690 0.962150 -0.383883
N 4.228538 -0.721531 0.274833
C 2.920864 -1.079830 0.394742
H 5.023973 -1.310167 0.521906
H 5.235541 1.086730 -0.399936
H 2.573215 1.914694 -0.740998
H 2.539325 -2.053695 0.729955
C -0.090146 1.745119 0.193537
N -0.137350 2.947922 0.369239
C -0.494611 4.202863 -0.196881
H 0.209730 4.997843 0.126702
H -1.508556 4.511113 0.142626
H -0.501506 4.177680 -1.310189
S 0.068160 -2.540613 -0.183850
H 0.870701 -2.590638 -1.287775
