36

Ir -0.147585 0.281247 -0.021661
N -2.283143 0.293381 -0.066160
C -2.976385 -0.596085 -0.819657
C -4.378134 -0.572596 -0.847864
N -5.109149 0.302928 -0.141387
C -4.412109 1.173430 0.605888
C -3.012038 1.184325 0.650873
H -2.385953 -1.334627 -1.380289
H -4.920922 -1.300895 -1.474930
H -4.982778 1.904049 1.204936
H -2.456046 1.908205 1.263490
P 2.149494 0.128783 -0.008751
C 3.080738 1.727028 0.222323
C 2.935989 -0.549650 -1.553922
C 2.647946 -2.013342 -1.887577
C 2.825953 -0.931711 1.354917
C 2.407050 -0.469822 2.752164
C 3.136776 2.653730 -0.995507
H 2.597283 2.237772 1.080673
H 4.106689 1.450090 0.549596
H 2.580412 0.112443 -2.370852
H 4.029283 -0.369930 -1.447487
H 2.432923 -1.949450 1.154854
H 3.931589 -0.959401 1.237080
H 1.560480 -2.203107 -1.972615
H 3.131427 -2.285665 -2.848038
H 3.038275 -2.700559 -1.110584
H 2.781963 0.546766 2.989945
H 1.301740 -0.454811 2.837979
H 2.802847 -1.159856 3.524709
H 3.709450 2.205084 -1.831335
H 2.127653 2.911092 -1.370954
H 3.638182 3.605649 -0.726923
C -0.091288 2.100957 -0.079559
O -0.088517 3.277612 -0.067204
Br -0.298163 -2.239522 0.230511
