34

Ir 0.335258 0.065432 -0.032461
C -1.646489 -0.004322 -0.025150
C -3.842133 0.386891 0.455370
C -3.792671 -0.657322 -0.429319
H -4.693397 0.884071 0.929848
H -4.592623 -1.257038 -0.873641
C -1.955119 -1.920846 -1.600314
H -0.974566 -1.593176 -1.994856
H -1.798705 -2.864413 -1.041202
H -2.672071 -2.075470 -2.429587
C -2.129690 1.854732 1.576721
H -1.093231 1.656063 1.910077
H -2.151868 2.828837 1.046153
H -2.808090 1.893843 2.450464
N -2.529013 0.769454 0.695199
N -2.453152 -0.877634 -0.716739
N 2.601998 -0.063074 0.024688
C 3.025943 -1.228759 -0.787394
C 3.248035 1.155618 -0.511768
C 3.027350 -0.254804 1.431938
H 2.930222 1.315793 -1.558496
H 4.358795 1.059285 -0.477125
H 2.942998 2.034110 0.086065
H 2.548951 -1.166934 1.833223
H 2.694453 0.611844 2.033280
H 4.137776 -0.345681 1.495597
H 2.691496 -1.084289 -1.831920
H 2.547887 -2.141163 -0.386300
H 4.136299 -1.337416 -0.765601
C 0.290710 1.813799 -0.696022
O 0.206155 2.924760 -1.071086
C 0.299159 -1.814277 0.783277
C 0.266657 -2.950885 1.283813
H 0.242230 -3.934786 1.733242
