37

Ir -0.153868 -0.087544 0.030212
P -2.462952 -0.371329 0.112006
C -3.071579 -1.129087 1.680492
C -3.134244 -1.523061 -1.164000
C -3.540086 1.120100 -0.072777
H -2.537407 -2.090331 1.814479
H -4.167119 -1.301635 1.654348
H -2.816174 -0.465914 2.529518
H -2.596522 -2.485867 -1.057422
H -2.922312 -1.113608 -2.170773
H -4.225971 -1.678906 -1.044064
H -3.283302 1.850876 0.719009
H -4.616174 0.861109 -0.003493
H -3.337266 1.590164 -1.055186
C 1.896639 -0.104497 0.019236
C 4.053787 -0.630778 -0.490829
C 4.081183 0.191076 0.605346
H 4.865916 -1.109299 -1.046586
H 4.921107 0.575468 1.191895
C 2.333847 1.339339 2.008843
H 2.588249 2.402605 1.820140
H 1.234882 1.233324 2.097658
H 2.817237 1.007164 2.948639
C 2.238253 -1.649023 -1.912991
H 2.027786 -2.669067 -1.534698
H 1.288310 -1.226829 -2.291258
H 2.993350 -1.682115 -2.721431
N 2.719849 -0.794634 -0.835174
N 2.759956 0.498856 0.902094
C -0.269549 1.790286 -0.270962
N -0.369047 2.977503 -0.434456
C -0.564661 4.236860 -1.034624
H -1.630499 4.547477 -0.967261
H -0.279259 4.225879 -2.110348
H 0.041398 5.019619 -0.530040
C -0.104465 -2.118175 0.267773
N -0.123449 -3.298516 0.358601
