31

Ir 0.030075 -0.009617 -0.053173
N 2.156663 0.045361 -0.038204
C 2.806236 1.093283 -0.611857
C 4.204016 1.166461 -0.592807
N 4.986304 0.233320 -0.023274
C 4.330995 -0.792350 0.545259
C 2.935628 -0.901030 0.547777
H 2.139204 1.855698 -1.054778
H 4.707508 2.027106 -1.067180
H 4.937425 -1.578037 1.029460
H 2.418148 -1.749199 1.019486
C -1.957836 0.139023 -0.035780
C -4.193035 -0.245451 -0.299346
C -4.056389 0.896819 0.444248
H -5.087643 -0.763910 -0.657132
H -4.809052 1.567259 0.870021
C -2.115055 2.209433 1.372483
H -1.935819 1.882799 2.416873
H -1.150687 2.492119 0.905819
H -2.811329 3.069761 1.369200
C -2.609854 -1.879162 -1.369381
H -1.593300 -1.764672 -1.790401
H -2.630361 -2.785058 -0.730381
H -3.348901 -1.986196 -2.186837
N -2.910350 -0.688832 -0.589781
N -2.695414 1.123335 0.588217
C -0.031455 -1.724509 0.594013
N -0.084349 -2.844973 1.112827
H -0.004890 -3.716965 0.577791
O 0.177376 1.898325 -0.779465
H -0.614572 2.150636 -1.288026
