35

Ir 0.029040 -0.212897 -0.018199
N -2.112872 -0.537186 0.020236
C -2.912844 0.705088 0.142013
C -2.510506 -1.231399 -1.230525
C -2.401503 -1.415968 1.188627
H -2.254761 -0.594373 -2.096580
H -3.604517 -1.449935 -1.226998
H -1.952915 -2.181444 -1.308935
H -2.163668 -0.861865 2.115192
H -1.729348 -2.292800 1.125144
H -3.475636 -1.714199 1.191431
H -2.712630 1.361768 -0.723607
H -2.616458 1.238211 1.062959
H -3.999212 0.460139 0.184697
N 2.186481 -0.196679 0.021726
C 2.790479 1.155463 0.045276
C 2.603298 -0.941757 1.242395
C 2.672450 -0.925210 -1.180079
H 2.263532 -0.385366 2.135268
H 3.712782 -1.048153 1.265316
H 2.109751 -1.931531 1.215537
H 2.348638 -0.382247 -2.086949
H 2.214737 -1.930607 -1.168398
H 3.784882 -1.002195 -1.161219
H 2.433125 1.700064 0.937671
H 2.479801 1.717673 -0.853520
H 3.901570 1.077910 0.075980
C -0.123244 1.603258 -0.174133
N -0.205772 2.803446 -0.425096
C -0.506423 4.024064 0.252695
H -1.379375 4.532308 -0.213962
H 0.344747 4.736990 0.182169
H -0.735914 3.875843 1.333242
O 0.267050 -2.265248 0.128452
H -0.086690 -2.739404 -0.646414
