28

Ir 0.064145 0.128862 -0.000263
As 2.507254 -0.026532 0.000212
C 3.547900 1.631020 0.000432
C 3.215531 -1.017914 -1.526506
C 3.214555 -1.017620 1.527585
H 3.282987 2.219625 -0.898534
H 4.633383 1.412670 0.001209
H 3.281783 2.220067 0.898753
H 2.996745 -0.455115 -2.453424
H 2.676024 -1.983667 -1.550945
H 4.306451 -1.175833 -1.420625
H 2.995218 -0.454581 2.454228
H 4.305532 -1.175628 1.422430
H 2.674953 -1.983322 1.551925
P -2.209606 0.021311 -0.000222
C -5.334893 -0.166982 0.000591
C -4.587680 -1.360247 0.000467
C -3.189280 -1.411706 0.000118
C -3.355567 1.326247 -0.000015
C -4.739294 1.107463 0.000347
H -6.433415 -0.233883 0.000889
H -5.137004 -2.317005 0.000669
H -2.648468 -2.370992 0.000029
H -2.958331 2.353681 -0.000209
H -5.400317 1.990547 0.000453
C 0.066550 1.956739 -0.000212
O 0.083124 3.130651 -0.000158
Cl 0.188123 -2.278838 -0.000344
