27

Ir -0.003138 0.108077 0.070749
P -2.273637 -0.066988 0.024716
C -5.359360 -0.524137 -0.177560
C -4.888323 0.775936 0.085243
C -3.533447 1.114153 0.197379
C -3.108916 -1.554187 -0.298461
C -4.504939 -1.627974 -0.361611
H -6.445919 -0.683032 -0.250059
H -5.631209 1.581648 0.209845
H -3.234968 2.154415 0.402045
H -2.472677 -2.436032 -0.472701
H -4.961631 -2.608592 -0.577764
P 2.285977 -0.056799 -0.005943
C 5.367829 -0.517011 -0.137682
C 4.527855 -1.638639 0.010379
C 3.133427 -1.565616 0.085895
C 3.524896 1.143618 -0.182766
C 4.883508 0.800893 -0.227478
H 6.455556 -0.678664 -0.184185
H 4.998334 -2.634595 0.072643
H 2.491754 -2.453181 0.203895
H 3.214895 2.197798 -0.259499
H 5.616885 1.616913 -0.340831
C -0.011303 1.952556 -0.056806
O -0.028150 3.124286 -0.102941
O 0.072531 -1.931813 0.216521
H -0.516875 -2.219153 0.939513
