30

Ir 0.494330 -0.058085 0.000037
N 2.746841 0.050996 -0.000129
C 3.382440 -1.289018 -0.000249
C 3.182466 0.787559 -1.215432
C 3.182606 0.787416 1.215222
H 2.844433 0.240307 -2.115000
H 4.293517 0.876085 -1.230448
H 2.721330 1.791591 -1.215820
H 2.844641 0.240064 2.114755
H 2.721458 1.791445 1.215777
H 4.293654 0.875934 1.230124
H 3.070967 -1.851649 -0.899155
H 3.071112 -1.851730 0.898654
H 4.491972 -1.188536 -0.000342
P -1.719463 0.012218 0.000098
C -4.853787 0.093429 -0.000192
C -4.144420 1.309009 -0.000185
C -2.748634 1.410714 -0.000060
C -2.822936 -1.330848 0.000081
C -4.212823 -1.158562 -0.000053
H -5.953787 0.123558 -0.000308
H -4.723759 2.247980 -0.000288
H -2.247088 2.390102 -0.000056
H -2.394438 -2.345173 0.000202
H -4.841375 -2.065195 -0.000051
C 0.454432 -1.940874 0.000080
O 0.386619 -3.109685 0.000101
C 0.502012 1.981279 0.000148
C 0.523676 3.221797 0.000211
H 0.544826 4.303559 0.000342
