29

Ir -0.281796 -0.118834 -0.011451
N -2.366970 -0.316014 -0.019101
C -4.486201 -1.353971 0.070562
O -4.555829 0.087389 0.330016
C -3.292456 0.523418 0.316797
C -3.028759 -1.594936 -0.365527
H -2.913371 -1.764030 -1.455775
H -2.502269 -2.422716 0.144294
H -5.241987 -1.594745 -0.700758
H -4.754920 -1.869692 1.016061
H -3.116500 1.574635 0.588421
P 1.927854 -0.206097 0.027541
C 5.034166 -0.581708 0.079812
C 4.219191 -1.724612 -0.046847
C 2.822122 -1.691349 -0.082346
C 3.142479 1.024685 0.176592
C 4.510725 0.719656 0.186292
H 6.126731 -0.712403 0.098133
H 4.713709 -2.708241 -0.122211
H 2.214877 -2.604470 -0.179250
H 2.804991 2.068706 0.269995
H 5.222091 1.557257 0.285648
C -0.314598 1.720101 0.090301
N -0.376914 2.927264 0.226972
C -0.325904 4.172614 -0.465254
H 0.606905 4.720966 -0.211188
H -1.172714 4.823886 -0.162250
H -0.361328 4.043798 -1.569947
F -0.319608 -2.125837 -0.154455
