29

Ir -0.164587 0.059802 -0.009693
N 1.958605 0.021840 0.004448
C 2.648918 -0.888495 0.738505
C 4.051097 -0.892158 0.742815
N 4.788565 -0.016799 0.042823
C 4.094510 0.877644 -0.680490
C 2.695571 0.909905 -0.710823
H 2.049954 -1.620351 1.300192
H 4.589318 -1.642142 1.348101
H 4.669880 1.610403 -1.272697
H 2.139778 1.647058 -1.306798
P -2.433968 -0.015991 0.016275
C -3.153307 -0.959978 1.430947
C -3.203433 -0.795287 -1.468829
C -3.334743 1.589775 0.127640
H -2.727737 -1.981541 1.442110
H -4.259252 -1.011400 1.364493
H -2.856276 -0.458075 2.372102
H -2.753097 -1.795279 -1.616967
H -2.954848 -0.179536 -2.354878
H -4.304564 -0.875575 -1.362817
H -3.001274 2.135572 1.030915
H -4.430162 1.425154 0.168887
H -3.087015 2.205895 -0.758133
C -0.176413 1.900672 0.203014
N -0.168301 3.102314 0.456832
H -0.228237 3.861241 -0.229583
S -0.012080 -2.318459 -0.337474
H -1.255779 -2.794903 -0.048534
