31

Ir 0.007705 -0.124525 0.010477
P -2.232996 -0.382174 0.026494
C -2.868843 -1.373489 1.447229
C -2.913081 -1.293496 -1.427149
C -3.282952 1.137209 0.083310
H -2.357829 -2.355851 1.426922
H -3.967737 -1.513242 1.386427
H -2.604838 -0.861986 2.392800
H -2.401587 -2.274496 -1.478520
H -2.678805 -0.729467 -2.350488
H -4.009610 -1.437527 -1.340010
H -3.023719 1.722944 0.986692
H -4.361220 0.879910 0.104330
H -3.069693 1.757269 -0.809319
N 2.143213 -0.116094 0.013263
C 4.303217 0.527172 0.092767
C 2.995909 0.969184 0.125730
N 4.224448 -0.846252 -0.041629
C 2.913607 -1.204754 -0.086743
H 5.010730 -1.493784 -0.096687
H 5.256933 1.059605 0.153402
H 2.608127 1.987336 0.224831
H 2.535840 -2.230253 -0.183333
C -0.112348 1.773911 0.057304
N -0.211321 2.971701 0.116322
C -0.490780 4.308798 -0.230865
H 0.011108 5.016256 0.462916
H -1.583788 4.509102 -0.178785
H -0.149790 4.542765 -1.264103
C 0.075951 -2.162954 -0.090447
N 0.124156 -3.344643 -0.154818
