33

Ir 0.066899 -0.055874 -0.000014
N 2.192073 -0.016189 -0.013734
C 2.897387 0.759627 -0.879608
C 4.298049 0.775133 -0.861115
N 5.030863 0.035321 -0.013392
C 4.325088 -0.730291 0.836271
C 2.926324 -0.766282 0.851481
H 2.308034 1.379403 -1.572834
H 4.841458 1.418533 -1.575045
H 4.891811 -1.352065 1.551339
H 2.367602 -1.402926 1.552235
C -1.925696 -0.010739 -0.000506
C -4.153285 -0.270407 -0.704810
C -4.138228 0.325578 0.710692
H -4.487692 0.467966 -1.472069
H -4.486008 -0.404672 1.479439
C -2.267377 1.200375 2.155391
H -2.443238 0.506950 3.009450
H -1.184900 1.412269 2.070902
H -2.809331 2.148990 2.352240
C -2.313933 -1.186254 -2.164402
H -2.623197 -0.551115 -3.025815
H -1.208110 -1.249697 -2.147111
H -2.749561 -2.199396 -2.302646
N -2.745344 -0.607924 -0.912977
N -2.719387 0.624112 0.907865
H -4.761792 1.238429 0.809651
H -4.804106 -1.165059 -0.796208
C 0.052015 -1.873577 0.365769
N 0.049688 -3.043458 0.745119
H 0.077165 -3.858484 0.122717
S 0.140083 2.315145 -0.393169
H -1.178022 2.588819 -0.609624
