41

Ir -0.480203 -0.229766 0.011616
P 1.790018 -0.149687 -0.028431
C 2.607422 0.339147 1.570249
C 2.466362 1.080125 -1.248938
C 1.950732 0.876187 -2.675152
C 2.702585 -1.706898 -0.492681
C 2.792510 -2.787064 0.588929
C 2.131737 1.660011 2.177576
H 2.405990 -0.498117 2.270312
H 3.704373 0.346698 1.381941
H 2.191187 2.088782 -0.879129
H 3.575047 1.010367 -1.197168
H 2.184078 -2.097677 -1.392586
H 3.719011 -1.394139 -0.816835
H 0.844782 0.946957 -2.700663
H 2.364728 1.648210 -3.355047
H 2.233343 -0.115866 -3.083254
H 3.396504 -2.455015 1.456707
H 1.794477 -3.090922 0.958371
H 3.279589 -3.695003 0.178722
H 2.319468 2.527591 1.513917
H 1.043086 1.631109 2.379340
H 2.657744 1.854008 3.134400
N -2.743297 -0.062465 0.057477
C -3.413001 -1.382482 0.061402
C -3.119524 0.677628 1.285953
C -3.172013 0.698643 -1.140122
H -2.791406 0.103360 2.172493
H -4.223998 0.824900 1.327991
H -2.607833 1.656745 1.287774
H -2.882349 0.140466 -2.049972
H -2.661155 1.678178 -1.146529
H -4.277242 0.846380 -1.132085
H -3.090870 -1.962341 0.945669
H -3.136414 -1.946015 -0.848435
H -4.520199 -1.257017 0.090038
C -0.486028 -2.051604 -0.078365
O -0.490801 -3.227038 -0.166558
N -0.510321 1.823821 0.041685
C -0.062742 2.946885 -0.015555
O 0.364616 4.066127 -0.065673
