31

Ir -0.040475 -0.428316 0.000932
P 2.205320 -0.802800 0.040820
C 3.051825 -0.041750 1.489484
C 3.122432 -0.090858 -1.390456
C 2.774298 -2.553588 0.081146
H 2.892633 1.054124 1.460269
H 4.139555 -0.257197 1.467178
H 2.608540 -0.441478 2.421553
H 2.982997 1.008222 -1.398227
H 2.712391 -0.507251 -2.330428
H 4.204200 -0.324103 -1.316559
H 2.323348 -3.066500 0.952207
H 3.879653 -2.605590 0.143299
H 2.431543 -3.068742 -0.836970
N -2.114216 0.129217 0.003613
C -4.820545 0.914896 0.031755
C -3.814673 1.776683 0.490981
C -2.481891 1.354168 0.461425
C -3.090233 -0.704884 -0.437890
C -4.442284 -0.350352 -0.441177
H -5.877368 1.221487 0.042845
H -4.049325 2.780412 0.873837
H -1.657436 2.002053 0.792095
H -2.758884 -1.692224 -0.787933
H -5.185870 -1.069807 -0.813512
C -0.411055 -2.228906 0.046371
N -0.647730 -3.425468 0.178211
H -0.741276 -4.133102 -0.554286
N 0.452772 1.562325 -0.067754
C 1.113519 2.567610 -0.117342
S 2.017994 3.900086 -0.180232
