28

Ir -0.252544 -0.377352 0.036954
N -2.370277 -0.208810 0.004962
C -2.985291 0.883143 0.525793
C -4.381398 1.003238 0.489026
N -5.181050 0.072805 -0.054221
C -4.560100 -0.999723 -0.570134
C -3.168687 -1.157626 -0.547040
H -2.333635 1.658274 0.952954
H -4.860656 1.897637 0.923018
H -5.189068 -1.781445 -1.030135
H -2.676366 -2.046781 -0.965486
P 1.983847 -0.441292 0.016752
C 5.107821 -0.528312 -0.039654
C 4.468027 0.723800 0.020490
C 3.079821 0.905160 0.052289
C 3.005642 -1.841749 -0.060708
C 4.402518 -1.744682 -0.079184
H 6.207674 -0.556636 -0.059946
H 5.097915 1.628883 0.043464
H 2.657607 1.922168 0.092543
H 2.515186 -2.826429 -0.103843
H 4.982406 -2.681522 -0.131374
C -0.327195 -2.223849 0.139900
N -0.385146 -3.443435 0.101176
H -0.412566 -4.120861 0.866524
N -0.173975 1.655780 -0.044884
C 0.202331 2.798319 -0.102549
S 0.713243 4.321343 -0.168940
