47

Ir -1.184907 -0.337526 -0.026149
P 1.081122 -0.050796 -0.013939
C 2.056564 -2.604009 -0.673476
C 2.069179 -1.585001 0.303650
C 1.682773 1.108014 1.294618
C 1.000171 1.112016 2.529380
C 1.447855 1.926724 3.579054
C 2.569394 2.753899 3.400694
C 3.242337 2.762355 2.168712
C 2.804292 1.940888 1.117543
C 1.844595 0.572320 -1.584029
C 1.079528 1.362847 -2.465741
C 1.656514 1.860751 -3.644241
C 2.995047 1.573703 -3.956355
C 3.760836 0.784402 -3.083024
C 3.190163 0.283717 -1.902528
C 2.798204 -1.779045 1.492764
C 3.501601 -2.977360 1.701568
C 3.486817 -3.985920 0.726641
C 2.763099 -3.795323 -0.462873
H 1.487839 -2.462709 -1.605919
H 0.103568 0.482313 2.646863
H 0.908224 1.925311 4.538577
H 2.914429 3.400976 4.222017
H 4.114454 3.417646 2.019747
H 3.333120 1.959418 0.153068
H 0.032983 1.593034 -2.213202
H 1.050167 2.477125 -4.325796
H 3.442604 1.962231 -4.884363
H 4.810089 0.551742 -3.322255
H 3.794483 -0.342930 -1.228957
H 2.819758 -0.991050 2.260049
H 4.067107 -3.119065 2.635507
H 4.038958 -4.923751 0.892757
H 2.743752 -4.583027 -1.231513
N -3.323181 -0.484658 -0.032343
C -5.421204 -1.274313 0.195448
C -4.084822 -1.569228 0.371707
N -5.450999 0.005761 -0.325376
C -4.174953 0.454197 -0.453846
H -6.286020 0.536526 -0.574157
H -6.328187 -1.852696 0.394056
H -3.622668 -2.483618 0.755828
H -3.876512 1.448668 -0.807271
C -1.045251 -2.153341 -0.037676
O -1.006033 -3.328373 -0.030540
Br -1.439888 2.202880 0.026799
