35

Ir -0.065960 0.055402 -0.038847
N -2.215832 -0.025317 0.011672
C -5.037880 -0.148679 0.078629
C -4.264232 -1.315119 -0.004238
C -2.869198 -1.216984 -0.033272
C -2.969677 1.103104 0.094432
C -4.367122 1.082391 0.130174
H -6.137138 -0.196787 0.104088
H -4.730655 -2.310410 -0.043990
H -2.221101 -2.105702 -0.067300
H -2.413373 2.050794 0.124988
H -4.916317 2.032800 0.199220
C 1.923389 0.011579 -0.021920
C 4.112207 -0.743386 -0.386779
C 4.155347 0.495446 0.521840
H 4.350653 -1.680948 0.169712
H 4.577059 1.388630 0.001151
C 2.314227 1.728870 1.742854
H 2.562814 2.747060 1.365517
H 1.215655 1.647383 1.857367
H 2.801657 1.587594 2.730943
C 2.235985 -1.772428 -1.729487
H 2.289080 -2.785924 -1.273358
H 1.174547 -1.553813 -1.956381
H 2.834754 -1.759138 -2.665090
N 2.715578 -0.757225 -0.819583
N 2.739680 0.701541 0.822011
H 4.745892 0.337267 1.448135
H 4.805077 -0.677458 -1.251285
C -0.065418 1.803056 -0.736010
N -0.044764 2.985225 -1.061000
H -0.029306 3.381657 -2.003910
C 0.014422 -1.835107 0.760758
C 0.094145 -2.980591 1.235266
H 0.149819 -3.971434 1.666221
