42

Ir 0.046793 0.170983 0.014233
P -2.273992 -0.006019 0.007252
C -3.072743 -1.063917 1.315532
C -2.899518 -0.727500 -1.582233
C -2.549667 0.116411 -2.810411
C -3.218875 1.587535 0.167924
C -3.104474 2.264465 1.535827
C -2.615062 -2.522548 1.391474
H -2.873531 -0.549207 2.278715
H -4.169240 -0.994508 1.135771
H -2.395598 -1.714270 -1.647795
H -3.994848 -0.894359 -1.485242
H -2.815449 2.251402 -0.624360
H -4.279758 1.375883 -0.089151
H -1.455288 0.292102 -2.857652
H -2.856017 -0.403696 -3.740634
H -3.051889 1.105534 -2.801562
H -3.605887 1.679964 2.333160
H -2.044060 2.393852 1.832159
H -3.577309 3.267714 1.516547
H -2.725597 -3.050492 0.423982
H -1.552002 -2.603160 1.688883
H -3.218902 -3.068905 2.144484
As 2.495439 0.123289 0.014748
C 3.320123 -1.257102 -1.103129
C 3.262824 -0.279335 1.769584
C 3.454928 1.744192 -0.526573
H 2.932308 -2.234420 -0.757768
H 4.423297 -1.225908 -1.010134
H 3.021104 -1.098730 -2.156310
H 2.796642 -1.228693 2.095038
H 2.987760 0.524531 2.478254
H 4.364381 -0.379872 1.710798
H 3.190428 1.981885 -1.574507
H 4.549374 1.602613 -0.435820
H 3.128996 2.584694 0.115014
C 0.003288 2.024742 -0.012431
N -0.027783 3.234069 -0.193757
H 0.028614 4.000325 0.478807
N 0.204154 -1.951860 -0.080209
O -0.289414 -2.597465 -1.019204
O 0.868198 -2.534455 0.806990
