47

Ir 0.135526 -0.061066 0.014041
P -2.191817 -0.230826 -0.086339
C -3.061786 -1.089807 1.324564
C -2.794724 -1.167026 -1.574687
C -2.323152 -0.558645 -2.897346
C -3.167641 1.358740 -0.194368
C -3.206569 2.173810 1.101189
C -2.679395 -2.554630 1.541847
H -2.810062 -0.491746 2.225462
H -4.157110 -0.978166 1.158836
H -2.367404 -2.184601 -1.455960
H -3.902971 -1.247911 -1.523083
H -2.685157 1.945096 -1.003687
H -4.196613 1.111988 -0.536805
H -1.216496 -0.480795 -2.905116
H -2.633790 -1.188197 -3.756528
H -2.736043 0.458073 -3.062929
H -3.812432 1.676158 1.884916
H -2.188096 2.323374 1.512810
H -3.653814 3.174349 0.926770
H -2.980846 -3.191423 0.686105
H -1.583669 -2.670561 1.653700
H -3.177058 -2.955144 2.449396
C 2.181089 -0.134956 0.032731
C 4.321998 -0.676405 0.594042
C 4.374005 0.054593 -0.564022
H 5.119602 -1.130110 1.190250
H 5.225563 0.369538 -1.174780
C 2.655904 1.136247 -2.059210
H 1.558722 1.018669 -2.159705
H 2.898421 2.211679 -1.935871
H 3.160464 0.744774 -2.964327
C 2.468531 -1.523090 2.081093
H 1.459755 -1.129581 2.312180
H 2.365056 -2.596196 1.824990
H 3.143758 -1.395540 2.949580
N 2.982564 -0.775536 0.943447
N 3.061936 0.373072 -0.890692
C 0.135501 1.828473 0.229451
N 0.176345 3.036911 0.244799
C 0.136998 4.304755 0.869752
H 0.811583 4.346298 1.754195
H -0.892621 4.546686 1.216150
H 0.449059 5.106921 0.167968
C 0.213517 -2.077704 -0.332407
C 0.300771 -3.294122 -0.571801
H 0.367798 -4.351647 -0.788411
