50

Ir 1.259951 -0.030551 0.047631
P -1.016653 0.043897 0.015608
C -1.746595 -2.438607 1.121797
C -1.825745 -1.621149 -0.027260
C -1.731141 0.904693 -1.457287
C -0.924907 1.038712 -2.605612
C -1.440877 1.643488 -3.762170
C -2.760336 2.122731 -3.777744
C -3.564311 1.998743 -2.632022
C -3.053789 1.393237 -1.474156
C -1.860649 0.860640 1.452562
C -1.239909 1.956685 2.087908
C -1.885350 2.615376 3.145558
C -3.148649 2.188568 3.585252
C -3.771184 1.097909 2.957921
C -3.133117 0.436591 1.896609
C -2.416919 -2.133821 -1.196873
C -2.920959 -3.445611 -1.218173
C -2.844959 -4.252106 -0.072776
C -2.258608 -3.743480 1.100231
H -1.277072 -2.046265 2.038039
H 0.114931 0.674135 -2.567647
H -0.802786 1.749931 -4.652837
H -3.162350 2.603829 -4.682894
H -4.595815 2.383617 -2.636568
H -3.685589 1.311917 -0.576724
H -0.253580 2.301900 1.744357
H -1.390341 3.471025 3.629949
H -3.648859 2.705389 4.418931
H -4.761673 0.755369 3.295575
H -3.629930 -0.420256 1.416968
H -2.480047 -1.506557 -2.098836
H -3.378546 -3.837042 -2.139812
H -3.245501 -5.277451 -0.090666
H -2.202654 -4.367878 2.005786
N 3.379249 0.032360 0.082718
C 5.679223 -0.565978 0.095800
O 5.468973 0.877681 0.114917
C 4.148391 1.076925 0.085021
C 4.252805 -1.159211 0.134033
H 4.035100 -1.727715 1.060557
H 4.026014 -1.824060 -0.722160
H 6.302461 -0.829012 0.972975
H 6.239783 -0.811122 -0.828879
H 3.781840 2.115648 0.063500
C 1.248507 -1.917744 0.013348
N 1.273583 -3.119831 -0.161355
H 0.952678 -3.930966 0.364884
C 1.321578 2.018426 -0.043896
N 1.462694 3.191470 -0.104786
