28

Ir 0.000008 -0.251778 -0.000083
N 2.060881 -0.175518 -0.012831
C 4.871672 0.033375 -0.013118
C 4.084851 0.885734 -0.800133
C 2.693378 0.755212 -0.779302
C 2.825368 -1.002547 0.751483
C 4.219828 -0.927789 0.774085
H 5.968929 0.114372 -0.013613
H 4.537121 1.657564 -1.439270
H 2.037443 1.404169 -1.373986
H 2.280096 -1.738324 1.358057
H 4.781486 -1.624205 1.413062
N -2.060836 -0.175554 0.012711
C -4.871640 0.033184 0.013361
C -4.084785 0.885347 0.800562
C -2.693312 0.754916 0.779558
C -2.825366 -1.002388 -0.751765
C -4.219836 -0.927705 -0.774194
H -5.968903 0.114106 0.014009
H -4.537044 1.656952 1.439978
H -2.037365 1.403685 1.374421
H -2.280080 -1.737925 -1.358619
H -4.781528 -1.623954 -1.413322
C 0.000108 -2.083891 0.000135
O 0.000110 -3.259994 0.000259
N 0.000097 1.779685 -0.000178
C -0.000163 2.987994 0.000017
O -0.000407 4.186433 0.000192
