54

Ir -1.108060 -0.330494 0.047170
P 1.119963 0.119190 0.024719
C 1.502862 -1.397775 -2.298276
C 2.074919 -1.049828 -1.054370
C 1.981671 0.004053 1.658934
C 1.434398 -0.816289 2.666557
C 2.089999 -0.949296 3.900311
C 3.289735 -0.260112 4.141259
C 3.834452 0.565725 3.143982
C 3.184862 0.699272 1.906967
C 1.612090 1.788764 -0.583006
C 1.212885 2.909001 0.177475
C 1.488868 4.204916 -0.277349
C 2.180008 4.395221 -1.485707
C 2.593346 3.284635 -2.236958
C 2.307648 1.982973 -1.792427
C 3.311909 -1.611425 -0.683350
C 3.968620 -2.506228 -1.545276
C 3.402363 -2.839451 -2.785772
C 2.168299 -2.280625 -3.162169
H 0.519153 -0.979846 -2.568229
H 0.481429 -1.333811 2.475303
H 1.653678 -1.588477 4.683385
H 3.798131 -0.359176 5.112863
H 4.769738 1.115590 3.331321
H 3.609252 1.355618 1.131475
H 0.665301 2.768048 1.120865
H 1.139733 5.068169 0.308133
H 2.390843 5.414122 -1.845225
H 3.138287 3.428043 -3.182835
H 2.627356 1.118784 -2.393316
H 3.762669 -1.358061 0.287778
H 4.931479 -2.945714 -1.241962
H 3.920913 -3.538902 -3.459666
H 1.716611 -2.539503 -4.132372
N -3.192047 -0.726646 0.072166
C -5.294022 -1.825004 0.216570
O -5.419953 -0.381324 0.055118
C -4.177918 0.112262 0.009949
C -3.771055 -2.082917 0.160912
H -3.453258 -2.670010 -0.724524
H -3.374867 -2.597599 1.058043
H -5.865417 -2.308723 -0.599810
H -5.756460 -2.095999 1.187280
H -4.071022 1.203167 -0.079012
C -0.655360 -2.134977 0.101192
N -0.339377 -3.300090 0.189837
C 0.279083 -4.442685 -0.385703
H -0.483045 -5.177192 -0.724943
H 0.921546 -4.955828 0.360333
H 0.912181 -4.162262 -1.256050
N -1.620507 1.633710 -0.057829
C -1.947782 2.787663 -0.113753
S -2.402578 4.335895 -0.175112
