50

Ir -1.102097 -0.519429 0.000198
P 1.114234 -0.011540 0.017794
C 1.517745 -1.355152 -2.410144
C 2.117875 -1.005410 -1.181235
C 1.984997 -0.270417 1.631264
C 1.538608 -1.292858 2.494354
C 2.208531 -1.537324 3.702650
C 3.321465 -0.761020 4.065157
C 3.766131 0.262535 3.212892
C 3.103169 0.508249 2.000003
C 1.525926 1.733884 -0.410567
C 1.090314 2.753226 0.463731
C 1.303247 4.099222 0.139255
C 1.963312 4.440603 -1.053371
C 2.409133 3.430844 -1.919264
C 2.188876 2.079583 -1.604078
C 3.446478 -1.397317 -0.923997
C 4.164555 -2.127991 -1.884482
C 3.566132 -2.467480 -3.108515
C 2.241701 -2.078015 -3.370412
H 0.471420 -1.060130 -2.594032
H 0.657483 -1.890236 2.216035
H 1.851244 -2.336551 4.370140
H 3.840092 -0.949599 5.017906
H 4.633854 0.879081 3.494240
H 3.451489 1.316876 1.339320
H 0.564109 2.492512 1.393936
H 0.930817 4.884176 0.813966
H 2.123725 5.498904 -1.310520
H 2.928329 3.692827 -2.854116
H 2.532376 1.294266 -2.293723
H 3.921739 -1.138883 0.034176
H 5.199948 -2.436045 -1.671793
H 4.132230 -3.040452 -3.859219
H 1.766659 -2.342067 -4.328041
N -3.198177 -0.961159 0.018179
C -5.155237 -2.061618 0.200441
C -3.782482 -2.197621 0.238037
N -5.387503 -0.722062 -0.046447
C -4.192636 -0.083551 -0.152058
H -6.299429 -0.272442 -0.132522
H -5.964267 -2.786616 0.328614
H -3.173725 -3.091260 0.407682
H -4.074433 0.990073 -0.332924
C -0.663013 -2.306669 -0.059255
N -0.404618 -3.504668 -0.000267
H -0.113521 -4.107369 -0.774870
N -1.662921 1.437147 0.014866
C -2.069702 2.566810 0.008220
S -2.639403 4.077013 0.004847
