31

Ir 0.226159 -0.181488 0.059392
C -1.762491 -0.267631 0.041539
C -3.910520 -0.824807 -0.496081
C -3.966564 0.184112 0.428030
H -4.708191 -1.368723 -1.010853
H -4.822061 0.698625 0.875659
C -2.288409 1.540302 1.707482
H -2.926708 1.454076 2.608795
H -1.227686 1.390378 1.980281
H -2.403354 2.549756 1.263497
C -2.067585 -2.091356 -1.649952
H -1.109145 -1.733590 -2.070316
H -1.876521 -3.051473 -1.130074
H -2.806650 -2.242411 -2.459517
N -2.567007 -1.085009 -0.723872
N -2.655926 0.507277 0.749620
N 2.356707 0.027157 -0.001545
C 4.415208 0.927352 -0.151453
C 3.064295 1.210098 -0.129310
N 4.512514 -0.447246 -0.034491
C 3.254080 -0.959871 0.052271
H 5.374731 -0.991837 -0.021176
H 5.294420 1.572372 -0.239940
H 2.529016 2.161967 -0.206468
H 3.017541 -2.024944 0.151963
C 0.341523 -1.949939 0.510321
N 0.443814 -3.165368 0.710831
H 0.431242 -3.583542 1.647350
N 0.123485 1.822895 -0.415833
C -0.429601 2.881921 -0.605744
O -0.946952 3.953113 -0.774751
