40

Ir 0.001796 0.121276 0.015238
C -2.052844 -0.001535 0.047773
C -4.200333 -0.752952 0.622990
C -4.307951 0.183693 -0.590264
H -4.381982 -1.819146 0.349362
H -4.788324 1.158291 -0.333584
C -2.528947 1.145515 -2.111174
H -2.845542 2.210495 -2.028540
H -1.426248 1.106577 -2.205293
H -2.993611 0.709688 -3.021427
C -2.272862 -1.277791 2.170838
H -2.219670 -2.373142 1.984473
H -1.243289 -0.914621 2.353236
H -2.904473 -1.084619 3.063715
N -2.804654 -0.568723 1.027738
N -2.901382 0.385528 -0.942109
H -4.876195 -0.258015 -1.435103
H -4.899217 -0.490629 1.444170
C 2.054747 0.003001 -0.049845
C 4.321707 0.127773 0.563556
C 4.191396 -0.687052 -0.732876
H 4.798336 1.122929 0.393561
H 4.379177 -1.774209 -0.567558
C 2.233864 -1.062061 -2.288190
H 2.185173 -2.170612 -2.209491
H 1.200979 -0.683671 -2.412956
H 2.846670 -0.780144 -3.170320
C 2.567871 0.933588 2.200327
H 2.893019 1.999902 2.222324
H 1.465549 0.887179 2.301936
H 3.039141 0.408306 3.058674
N 2.921674 0.293199 0.957888
N 2.788257 -0.468281 -1.091422
H 4.874039 -0.343869 -1.537679
H 4.904494 -0.393691 1.351137
C -0.009017 2.001998 0.092069
N -0.022738 3.221900 0.036186
H -0.046759 3.931089 0.769292
C 0.003855 -1.942013 -0.054550
N 0.003351 -3.123525 -0.097876
