30

Ir 0.324721 -0.329007 0.029448
N 2.429906 0.265832 -0.040420
C 3.116924 -0.201791 1.193121
C 3.074145 -0.358971 -1.228102
C 2.606652 1.740554 -0.137875
H 2.994670 -1.458723 -1.161810
H 4.147784 -0.064698 -1.280799
H 2.552738 -0.022073 -2.142286
H 2.145518 2.230796 0.736882
H 2.103903 2.116302 -1.045777
H 3.692110 1.982650 -0.178561
H 3.047951 -1.301930 1.262375
H 2.621891 0.241527 2.076132
H 4.189588 0.100021 1.174873
N -1.647750 -0.806255 0.047931
C -3.720132 -1.909327 -0.283734
O -3.873564 -0.604734 0.348479
C -2.640434 -0.113582 0.521074
C -2.216541 -1.999711 -0.618928
H -1.998023 -1.935272 -1.704066
H -1.727007 -2.915255 -0.234765
H -4.384876 -1.939344 -1.168517
H -4.056118 -2.676364 0.444411
H -2.547874 0.855770 1.029132
C 0.813655 -2.093696 0.122166
N 1.137506 -3.282442 0.080537
H 1.327526 -3.879764 0.890975
N -0.270941 1.617571 -0.038240
C -0.732392 2.728414 -0.058104
S -1.342318 4.220218 -0.072492
