51

Ir 1.309761 -0.175206 0.010290
P -1.033018 0.026259 0.004235
C -1.733350 -2.504629 0.962821
C -2.012733 -1.533770 -0.023525
C -1.640006 0.978004 -1.452992
C -0.909875 0.880252 -2.655702
C -1.350887 1.556898 -3.802710
C -2.515466 2.340833 -3.754014
C -3.238711 2.449243 -2.554493
C -2.804205 1.771378 -1.404829
C -1.712081 0.948938 1.451854
C -0.984103 2.069529 1.910474
C -1.476156 2.820900 2.987731
C -2.681377 2.462154 3.615707
C -3.400810 1.344964 3.162715
C -2.920558 0.587231 2.081829
C -3.008511 -1.790579 -0.986475
C -3.717222 -3.003149 -0.959540
C -3.442120 -3.961530 0.027869
C -2.449592 -3.708748 0.990201
H -0.945566 -2.314157 1.708576
H 0.015661 0.280689 -2.668165
H -0.775568 1.479110 -4.738073
H -2.857088 2.877182 -4.652876
H -4.146498 3.070704 -2.511200
H -3.368024 1.864005 -0.463690
H -0.035229 2.329335 1.409046
H -0.907856 3.694247 3.343913
H -3.059774 3.053314 4.464171
H -4.343793 1.057622 3.653257
H -3.486502 -0.289561 1.731734
H -3.230370 -1.041733 -1.761477
H -4.490506 -3.197739 -1.718652
H -3.998327 -4.911407 0.045535
H -2.223443 -4.459674 1.762550
P 3.618248 0.067410 0.049601
C 4.124039 1.032156 1.529894
C 4.193818 1.110855 -1.349919
C 4.701149 -1.417572 0.032825
H 3.464837 1.922567 1.537444
H 5.190796 1.332418 1.489646
H 3.928515 0.437295 2.442614
H 3.556890 2.017158 -1.330296
H 4.023743 0.576926 -2.304503
H 5.264276 1.383742 -1.251934
H 4.452542 -2.053315 0.904865
H 5.773884 -1.139580 0.067674
H 4.497973 -2.002673 -0.885242
C 1.332951 -1.989788 -0.068175
O 1.392166 -3.164242 -0.121288
F 1.422986 1.863545 0.071808
