32

Ir 0.004730 -0.125194 0.017864
P -2.236614 -0.331340 0.040689
C -2.895676 -1.331026 1.445501
C -2.958650 -1.184856 -1.428495
C -3.246426 1.214274 0.138696
H -2.396721 -2.319024 1.411661
H -3.996799 -1.451156 1.381334
H -2.624332 -0.835549 2.397585
H -2.459035 -2.168949 -1.518843
H -2.730137 -0.593624 -2.336231
H -4.055892 -1.314763 -1.328041
H -2.957034 1.778888 1.046236
H -4.330935 0.985415 0.171390
H -3.029472 1.843893 -0.746321
N 2.141588 -0.130024 0.022875
C 4.303856 0.495182 0.154741
C 2.998464 0.940291 0.215765
N 4.218928 -0.865067 -0.078933
C 2.905321 -1.211404 -0.153360
H 5.002828 -1.509974 -0.177719
H 5.260073 1.016770 0.257017
H 2.613015 1.949870 0.387235
H 2.512457 -2.222480 -0.319148
C -0.075545 1.768927 0.093058
N -0.147146 2.974314 0.182234
C -0.382642 4.252583 -0.381762
H 0.206073 5.034050 0.143146
H -1.455578 4.531417 -0.286827
H -0.115542 4.285585 -1.462034
C 0.029786 -2.165735 -0.129232
C 0.026226 -3.406456 -0.220472
H 0.020129 -4.485599 -0.296163
