26

Ir -0.142436 0.070433 -0.009346
N -2.206505 0.029366 0.025305
C -4.380054 0.552801 -0.255036
C -3.085010 0.978462 -0.471207
N -4.269016 -0.669004 0.380257
C -2.949304 -0.956782 0.542111
H -5.039767 -1.264418 0.682255
H -5.345895 1.006269 -0.495560
H -2.720214 1.894519 -0.943427
H -2.549428 -1.871420 0.993950
N 1.896797 0.009353 0.009163
C 4.721606 -0.103718 0.074391
C 4.052737 0.867757 -0.685949
C 2.656438 0.893704 -0.697947
C 2.549786 -0.931413 0.752544
C 3.943392 -1.016206 0.802471
H 5.820617 -0.146800 0.100229
H 4.604883 1.610775 -1.279612
H 2.095709 1.632650 -1.285638
H 1.899996 -1.623160 1.306488
H 4.406267 -1.798402 1.421553
C -0.132803 1.889377 0.329189
N -0.115698 3.082329 0.633811
H -0.120158 3.853204 -0.043609
S -0.282024 -2.270831 -0.542172
H 1.028170 -2.591447 -0.745356
