36

Ir -0.076366 -0.091655 -0.067382
As 2.357972 -0.254477 -0.084505
C 3.527091 1.284700 0.258401
C 3.068886 -0.978442 -1.762418
C 2.993958 -1.602070 1.187978
H 3.295981 2.075217 -0.481387
H 4.596634 1.005651 0.189856
H 3.307264 1.676642 1.270272
H 2.897586 -0.249740 -2.577245
H 2.484467 -1.895160 -1.970556
H 4.148019 -1.215407 -1.681153
H 2.841876 -1.231941 2.219685
H 4.058891 -1.859041 1.025512
H 2.342921 -2.481418 1.019088
C -2.094576 -0.285121 -0.065954
C -4.184786 -1.058521 0.412133
C -4.326794 0.017257 -0.425324
H -4.932616 -1.717467 0.863771
H -5.222263 0.479178 -0.852007
C -2.749770 1.587133 -1.597654
H -2.657703 2.534577 -1.030853
H -1.781644 1.391088 -2.093990
H -3.552900 1.678136 -2.353554
C -2.233861 -2.263964 1.460946
H -1.244237 -2.521459 1.032639
H -2.119341 -1.894848 2.500581
H -2.892350 -3.153580 1.458155
N -2.824510 -1.232585 0.613378
N -3.047004 0.470480 -0.711902
C -0.124146 1.712857 0.204356
N -0.130358 2.932227 0.315328
C -0.002131 3.926225 1.334265
H -0.779383 4.711594 1.218028
H 0.982157 4.440241 1.261784
H -0.091252 3.502096 2.359917
F 0.128315 -2.116707 -0.328829
