29

Ir 0.312110 0.056241 -0.005438
N -1.716727 0.010396 -0.008503
C -2.398426 -1.028108 -0.576800
C -3.797103 -1.057241 -0.581406
N -4.563080 -0.094837 -0.042282
C -3.884779 0.919860 0.518800
C -2.488970 0.989383 0.547693
H -1.791168 -1.833368 -1.009723
H -4.311299 -1.912223 -1.053787
H -4.471583 1.733719 0.979180
H -1.966017 1.832329 1.017717
N 2.502864 -0.063313 -0.030728
C 2.968453 -0.618995 1.271167
C 2.920154 -0.972512 -1.135000
C 3.164120 1.251564 -0.238644
H 2.458478 -1.963912 -0.980847
H 4.030246 -1.062580 -1.153097
H 2.565687 -0.558979 -2.097109
H 2.891994 1.941028 0.580603
H 2.833561 1.687286 -1.198720
H 4.269829 1.123821 -0.255161
H 2.511207 -1.612488 1.424672
H 2.645300 0.052462 2.087789
H 4.079443 -0.701722 1.272370
C 0.306170 1.926585 -0.149035
O 0.275806 3.098675 -0.190560
C 0.300828 -1.969949 0.270525
C 0.277163 -3.198013 0.452382
H 0.248326 -4.266462 0.621825
