52

Ir -0.004716 -0.154992 -0.009723
P 2.341243 -0.133120 -0.037328
C 3.039152 1.310723 -0.983787
C 3.232244 -1.582675 -0.804746
C 3.485790 -2.780277 0.115316
C 3.139111 0.046522 1.634375
C 2.609381 1.222774 2.457276
C 2.557723 1.362482 -2.435681
H 2.714720 2.219577 -0.434878
H 4.148351 1.267619 -0.917561
H 2.590829 -1.892019 -1.655146
H 4.186220 -1.193197 -1.223249
H 2.933770 -0.908890 2.160113
H 4.240582 0.107491 1.489141
H 2.533878 -3.151773 0.541691
H 3.942517 -3.609915 -0.462684
H 4.181698 -2.535099 0.942863
H 2.799089 2.199305 1.967186
H 1.513594 1.136052 2.599938
H 3.092562 1.251447 3.455209
H 2.905443 0.483534 -3.016064
H 1.448685 1.364921 -2.475208
H 2.932727 2.271322 -2.949773
P -2.348980 -0.157649 0.072408
C -3.219620 -1.780323 0.355492
C -3.223315 0.537640 -1.418231
C -2.742400 1.922148 -1.855746
C -2.993304 0.898277 1.462162
C -2.473263 0.457450 2.832772
C -3.403488 -2.662823 -0.882184
H -2.593308 -2.310148 1.102199
H -4.197076 -1.547403 0.832389
H -3.049855 -0.197382 -2.231082
H -4.315421 0.533624 -1.205447
H -2.653557 1.931848 1.240505
H -4.104718 0.896133 1.419625
H -1.659737 1.897833 -2.093620
H -3.288946 2.260022 -2.759867
H -2.896836 2.687858 -1.068249
H -2.819702 -0.562195 3.098388
H -1.363698 0.444273 2.835733
H -2.819064 1.146916 3.629914
H -4.085059 -2.206187 -1.628121
H -2.426691 -2.867882 -1.361872
H -3.844202 -3.637901 -0.589226
C -0.009948 1.676050 0.158083
N -0.005134 2.879496 0.352907
C 0.016267 4.142335 -0.309060
H 1.055012 4.535197 -0.374081
H -0.578824 4.890508 0.254711
H -0.391721 4.081986 -1.342787
Cl 0.017524 -2.557049 -0.234403
