35

Ir 0.166585 -0.123833 -0.004846
P -2.064526 -0.358169 -0.008248
C -2.735981 -1.276763 1.443913
C -2.718702 -1.328643 -1.434216
C -3.101428 1.170416 -0.041268
H -2.235622 -2.264149 1.478216
H -3.834989 -1.407000 1.367376
H -2.485553 -0.724619 2.370140
H -2.218680 -2.316761 -1.426160
H -2.456319 -0.810423 -2.376569
H -3.818639 -1.456114 -1.366695
H -2.872843 1.783554 0.852159
H -4.181174 0.918922 -0.049761
H -2.851550 1.759678 -0.944907
N 2.430697 -0.182263 -0.007365
C 3.036225 1.166402 -0.043035
C 2.880541 -0.882082 1.221336
C 2.871838 -0.941652 -1.203548
H 2.520881 -0.328762 2.108847
H 3.994375 -0.942886 1.247251
H 2.450529 -1.899818 1.242012
H 2.506168 -0.432086 -2.114485
H 2.441621 -1.959017 -1.171187
H 3.985457 -1.004170 -1.234107
H 2.712604 1.742457 0.843243
H 2.701892 1.700425 -0.951318
H 4.149411 1.095878 -0.047347
C 0.047092 1.777475 -0.042258
N -0.073051 2.970974 -0.091435
C -0.333508 4.338525 0.102021
H 0.009551 4.681334 1.103623
H -1.423344 4.548324 0.025955
H 0.181292 4.958441 -0.663401
C 0.206696 -2.162239 0.050778
N 0.206519 -3.346448 0.081892
