31

Ir -0.000009 0.120368 -0.000107
P 2.326512 -0.082285 -0.000089
C 2.976107 -1.023130 -1.442872
C 2.975985 -1.021996 1.443484
C 3.322274 1.467569 -0.000729
H 2.482472 -2.014591 -1.452484
H 4.076728 -1.144966 -1.380602
H 2.709870 -0.489705 -2.375691
H 2.482288 -2.013417 1.453887
H 2.709902 -0.487834 2.375919
H 4.076597 -1.144012 1.381236
H 3.065116 2.063935 -0.897754
H 4.409307 1.248899 -0.000274
H 3.064591 2.065152 0.895332
P -2.326477 -0.082258 -0.000074
C -2.976051 -1.022137 1.443340
C -2.975963 -1.022944 -1.443014
C -3.322261 1.467601 -0.000581
H -2.482446 -2.013607 1.453504
H -4.076678 -1.143973 1.381180
H -2.709745 -0.488181 2.375831
H -2.482290 -2.014386 -1.452716
H -2.709792 -0.489391 -2.375773
H -4.076576 -1.144913 -1.380764
H -3.065105 2.064745 0.895924
H -4.409291 1.248892 -0.000804
H -3.064667 2.064398 -0.897189
C 0.000028 1.994473 0.000229
O 0.000023 3.165149 0.000726
C -0.000031 -1.926539 0.000323
N -0.000112 -3.109396 0.000717
