34

Ir -0.302340 -0.029307 -0.023296
P -2.644108 -0.117879 0.056566
C -3.260525 -0.520743 1.740350
C -3.429167 -1.393750 -1.013159
C -3.539587 1.430224 -0.392125
H -2.773047 -1.474167 2.022824
H -4.365099 -0.621448 1.756348
H -2.938670 0.270211 2.444685
H -3.039005 -2.381855 -0.702195
H -3.149229 -1.213062 -2.068696
H -4.532746 -1.371554 -0.906164
H -3.205779 2.248716 0.274762
H -4.636008 1.297772 -0.294269
H -3.292121 1.706275 -1.435653
P 1.980424 -0.086138 0.016694
C 5.118263 -0.151052 0.146526
C 4.430501 -1.334176 -0.184099
C 3.038028 -1.434927 -0.277708
C 3.067938 1.218123 0.393413
C 4.459652 1.061640 0.418749
H 6.217667 -0.175459 0.193028
H 5.025359 -2.241153 -0.386133
H 2.547114 -2.381032 -0.554074
H 2.621059 2.198020 0.624109
H 5.075234 1.942176 0.669922
C -0.301332 1.861951 -0.042857
N -0.314732 3.060283 -0.034781
C -0.272517 4.424378 -0.385698
H -1.297228 4.816047 -0.562910
H 0.323297 4.584583 -1.310815
H 0.181874 5.029704 0.427182
N -0.370233 -2.149993 -0.059363
O 0.266899 -2.778278 -0.919816
O -1.091897 -2.754084 0.762519
