33

Ir 0.030734 -0.409302 -0.020475
C 2.086219 -0.528041 -0.059100
C 4.244146 -1.009971 0.471727
C 4.260950 -0.118842 -0.568793
H 5.061732 -1.485369 1.021841
H 5.096841 0.340537 -1.104833
C 2.528575 1.097478 -1.921021
H 1.471129 0.896294 -2.171341
H 2.616261 2.142659 -1.560340
H 3.160942 0.950329 -2.817417
C 2.447808 -2.137135 1.823395
H 1.394069 -1.884368 2.046554
H 2.509053 -3.195910 1.498648
H 3.064449 -1.995304 2.731674
N 2.909542 -1.245572 0.770010
N 2.938951 0.159414 -0.881212
P -2.241913 -0.111614 0.010478
C -5.344302 0.369300 0.027131
C -4.865709 -0.924893 -0.247802
C -3.507822 -1.266210 -0.283512
C -3.094792 1.372752 0.313430
C -4.491586 1.457740 0.292506
H -6.431807 0.538473 0.032652
H -5.604138 -1.719313 -0.450017
H -3.202699 -2.298945 -0.515053
H -2.480989 2.262072 0.525954
H -4.951254 2.439729 0.496184
C -0.151033 -2.221090 -0.350969
N -0.267587 -3.391964 -0.682625
H -0.360298 -4.226349 -0.100492
N 0.287128 1.591485 0.310902
C 0.692757 2.720891 0.353818
S 1.250712 4.235034 0.378815
