27

Ir 0.000052 -0.427619 0.026657
N -2.047699 -0.362506 0.046861
C -2.695642 0.646653 0.692664
C -4.094104 0.715083 0.696961
N -4.876851 -0.187110 0.084525
C -4.228489 -1.177263 -0.549017
C -2.833560 -1.279547 -0.580349
H -2.068805 1.396505 1.192506
H -4.590778 1.545218 1.227894
H -4.838686 -1.936935 -1.067604
H -2.322519 -2.096118 -1.106739
N 2.047745 -0.362365 0.046874
C 2.833669 -1.279315 -0.580400
C 4.228583 -1.176891 -0.549108
N 4.876852 -0.186707 0.084488
C 4.094052 0.715360 0.697014
C 2.695584 0.646815 0.692741
H 2.322656 -2.095884 -1.106817
H 4.838864 -1.936454 -1.067757
H 4.590678 1.545494 1.227997
H 2.068684 1.396585 1.192619
C 0.000112 -2.275101 0.105486
N 0.000190 -3.487521 0.252297
H 0.000110 -4.254764 -0.421778
N 0.000080 1.599279 -0.118376
C -0.000120 2.795041 -0.267465
S -0.000433 4.392908 -0.440673
