54

Ir -1.363451 -0.135603 -0.005922
P 0.900963 -0.016762 0.006257
C 1.128649 -1.893092 -2.057488
C 1.689263 -1.469172 -0.832239
C 1.661557 0.000336 1.691647
C 0.927000 -0.530553 2.771529
C 1.489827 -0.564807 4.056389
C 2.783506 -0.063616 4.274199
C 3.515365 0.475741 3.203161
C 2.958495 0.510241 1.915378
C 1.713335 1.430725 -0.813211
C 1.482256 2.721995 -0.289437
C 2.097021 3.837211 -0.873309
C 2.943627 3.682133 -1.983666
C 3.173956 2.402096 -2.508768
C 2.564047 1.278667 -1.926567
C 2.792454 -2.162885 -0.300136
C 3.329084 -3.265859 -0.985686
C 2.775346 -3.678086 -2.207699
C 1.674608 -2.987180 -2.744269
H 0.247164 -1.361902 -2.452726
H -0.095967 -0.896348 2.588913
H 0.908549 -0.977266 4.895375
H 3.220674 -0.084281 5.284527
H 4.525885 0.879026 3.371687
H 3.530472 0.944466 1.080774
H 0.805864 2.863165 0.567168
H 1.901508 4.838680 -0.460731
H 3.421063 4.561910 -2.442089
H 3.835056 2.270554 -3.379280
H 2.758266 0.279671 -2.343156
H 3.230245 -1.849219 0.659191
H 4.186413 -3.807662 -0.557241
H 3.199470 -4.541928 -2.742620
H 1.235061 -3.305906 -3.702242
N -3.624972 -0.139119 -0.013170
C -4.093388 0.642161 1.159941
C -4.104859 0.486143 -1.271586
C -4.183654 -1.508324 0.075376
H -3.700978 1.508480 -1.371094
H -5.219171 0.518230 -1.283840
H -3.743899 -0.108471 -2.131072
H -3.831484 -1.999307 1.000325
H -3.843991 -2.106254 -0.789741
H -5.297419 -1.469523 0.078962
H -3.666786 1.660503 1.133469
H -3.743040 0.147778 2.084883
H -5.206935 0.695327 1.166962
C -1.229254 -1.979878 0.171567
N -1.121800 -3.176402 0.393380
H -0.885977 -3.933370 -0.252023
N -1.516340 1.965510 -0.208124
O -1.586663 2.658398 0.830907
O -1.536645 2.495672 -1.330606
