29

Ir -0.175297 -0.222537 0.004456
N -2.275624 -0.000928 -0.000728
C -2.847683 1.200235 0.278406
C -4.240064 1.350496 0.287189
N -5.090506 0.345286 0.025812
C -4.515658 -0.835812 -0.252147
C -3.129053 -1.025059 -0.268938
H -2.150275 2.028501 0.474348
H -4.675259 2.337750 0.520272
H -5.181058 -1.687773 -0.475529
H -2.686453 -2.004833 -0.494917
As 2.219915 -0.230463 0.021470
C 3.112402 -1.968543 0.074682
C 3.024732 0.730633 1.523759
C 3.053409 0.649916 -1.514811
H 2.788900 -2.510198 0.983621
H 4.211830 -1.839119 0.081909
H 2.806342 -2.555759 -0.811745
H 2.640200 0.306433 2.469975
H 2.730976 1.795366 1.456498
H 4.128050 0.642404 1.485381
H 2.680087 0.181710 -2.444595
H 4.155228 0.555011 -1.454649
H 2.768713 1.719340 -1.505942
C -0.223984 -2.049924 0.034128
O -0.208076 -3.226670 0.041030
N -0.004880 1.825814 -0.048033
C 0.639544 2.848689 -0.132052
O 1.255401 3.873772 -0.210638
