43

Ir -0.172778 -0.007686 0.007034
P 2.113594 -0.057996 0.019392
C 2.964501 -1.206117 -1.187677
C 2.813314 -0.549032 1.665818
C 2.437511 0.409653 2.797716
C 2.959334 1.557008 -0.353943
C 2.736707 2.067256 -1.779899
C 2.992071 -2.703746 -0.865515
H 2.464620 -1.028073 -2.162683
H 4.002860 -0.816662 -1.282587
H 2.370134 -1.550094 1.849775
H 3.914656 -0.666920 1.564235
H 2.563359 2.283081 0.385828
H 4.041812 1.425979 -0.136446
H 1.335781 0.529925 2.848642
H 2.788058 0.018572 3.774531
H 2.883672 1.416860 2.664497
H 3.209078 1.406151 -2.534116
H 1.655275 2.120296 -2.020405
H 3.171563 3.079686 -1.910714
H 3.480832 -2.908967 0.107606
H 1.982196 -3.154058 -0.836734
H 3.574380 -3.236019 -1.645656
N -2.303247 -0.131502 0.022865
C -5.109635 -0.301962 -0.002341
C -4.329806 -1.139847 -0.812146
C -2.935194 -1.028730 -0.776753
C -3.056428 0.678341 0.810489
C -4.453207 0.622276 0.824816
H -6.208200 -0.368395 -0.012614
H -4.789805 -1.886092 -1.475995
H -2.270680 -1.684808 -1.363887
H -2.500022 1.388856 1.438614
H -5.013264 1.300846 1.484504
C -0.219312 1.862508 -0.017047
N -0.257976 3.067585 0.058015
C -0.283222 4.365323 -0.511387
H -1.222099 4.534641 -1.082389
H 0.571658 4.509707 -1.208289
H -0.218313 5.145795 0.274773
N -0.098804 -2.123540 0.056265
O 0.382767 -2.713499 1.040057
O -0.466163 -2.771989 -0.948283
