38

Ir -0.160832 0.051307 -0.005653
N -2.286872 0.044049 -0.063384
C -2.977162 -0.875810 -0.785877
C -4.378644 -0.867569 -0.807624
N -5.116261 0.028844 -0.134421
C -4.422301 0.932022 0.577867
C -3.023169 0.954385 0.624670
H -2.380384 -1.623551 -1.328428
H -4.916309 -1.625323 -1.403693
H -4.997706 1.681891 1.148200
H -2.468992 1.705313 1.205495
P 2.121370 -0.021039 -0.001444
C 3.001539 1.624016 -0.012871
C 2.939001 -0.878089 -1.442421
C 2.642117 -2.366928 -1.617654
C 2.876079 -0.843360 1.487615
C 2.437017 -0.212860 2.811072
C 2.983232 2.367349 -1.351027
H 2.506102 2.230722 0.772420
H 4.045910 1.441535 0.321427
H 2.598028 -0.314560 -2.335715
H 4.032028 -0.694102 -1.342221
H 2.557878 -1.905536 1.449679
H 3.981056 -0.825995 1.361833
H 1.552166 -2.552037 -1.696364
H 3.127853 -2.750815 -2.538030
H 3.027074 -2.970194 -0.769754
H 2.759728 0.844955 2.895055
H 1.332049 -0.237465 2.899915
H 2.869266 -0.763150 3.671452
H 3.606227 1.862402 -2.115973
H 1.955303 2.451189 -1.755928
H 3.380865 3.395559 -1.228487
C -0.157813 1.894752 -0.150528
N -0.221253 3.118996 -0.040818
H -0.244970 3.775056 -0.828968
S -0.421454 -2.291381 0.452856
H 0.834902 -2.809534 0.500334
