50

Ir 1.049277 -0.420216 -0.033913
N 3.170453 -0.644098 -0.048043
C 3.963354 0.268862 -0.662681
C 5.357584 0.120042 -0.666716
N 5.984573 -0.908381 -0.075968
C 5.189656 -1.803789 0.530853
C 3.794054 -1.688177 0.553217
H 3.461888 1.122984 -1.137649
H 5.981964 0.874612 -1.175326
H 5.673525 -2.660822 1.030495
H 3.158456 -2.431988 1.054007
P -1.229070 -0.097364 -0.023119
C -1.428778 -1.022925 -2.679957
C -2.033864 -0.234991 -1.679449
C -1.789998 1.544386 0.593789
C -1.527532 2.684821 -0.195031
C -1.876651 3.958440 0.272087
C -2.499493 4.104210 1.522917
C -2.770314 2.971955 2.305735
C -2.414587 1.692877 1.847628
C -2.130405 -1.308598 1.041033
C -1.510043 -1.720573 2.240230
C -2.170088 -2.601391 3.109597
C -3.447031 -3.087292 2.783902
C -4.062837 -2.688099 1.586927
C -3.411006 -1.799268 0.717652
C -3.260895 0.409297 -1.950471
C -3.875585 0.255607 -3.202567
C -3.272658 -0.537874 -4.192373
C -2.049333 -1.174876 -3.929219
H -0.458947 -1.502196 -2.476570
H -1.032291 2.579563 -1.171757
H -1.640501 4.841884 -0.338969
H -2.767471 5.106392 1.890872
H -3.258887 3.080693 3.286180
H -2.624821 0.810910 2.470418
H -0.498927 -1.350353 2.476265
H -1.679424 -2.916463 4.043208
H -3.961141 -3.785616 3.462102
H -5.059407 -3.074036 1.322941
H -3.899353 -1.496109 -0.220333
H -3.731357 1.042539 -1.182725
H -4.830297 0.764219 -3.406801
H -3.754803 -0.653168 -5.175335
H -1.567646 -1.789508 -4.704945
C 0.778708 -2.238170 -0.128309
O 0.628084 -3.401162 -0.175787
N 1.401367 1.565979 0.095434
C 1.609230 2.747228 0.185957
S 1.890174 4.328634 0.280613
