39

Ir -0.354474 -0.193314 0.096553
N -2.623608 -0.376039 0.080044
C -3.318147 0.886189 -0.236053
C -2.970841 -1.407476 -0.924384
C -3.020168 -0.844859 1.427739
H -2.674873 -1.049706 -1.928751
H -4.067533 -1.615070 -0.913815
H -2.399019 -2.324091 -0.687826
H -2.755740 -0.072925 2.175037
H -2.452183 -1.767929 1.648651
H -4.118675 -1.040352 1.468904
H -3.010703 1.236696 -1.238964
H -3.038589 1.661735 0.500729
H -4.424843 0.743270 -0.221495
C 1.600129 -0.236247 0.076244
C 3.770978 -0.784853 -0.641650
C 3.870815 0.190764 0.535285
H 4.430487 -1.671644 -0.536479
H 4.534299 1.057559 0.331260
C 2.148933 1.502577 1.793113
H 2.530293 2.526836 1.593211
H 1.049261 1.537055 1.897504
H 2.592824 1.143648 2.750772
C 1.839636 -2.030151 -1.648657
H 2.471742 -2.940792 -1.709003
H 0.806869 -2.318492 -1.374034
H 1.837775 -1.535846 -2.648239
N 2.358104 -1.155470 -0.615414
N 2.481121 0.603475 0.711416
H 4.245846 -0.306117 1.463448
H 4.021880 -0.291969 -1.612815
C -0.361254 1.623571 -0.210023
N -0.368316 2.846374 -0.305012
C -0.309980 3.820790 -1.351973
H 0.519499 4.538601 -1.171891
H -1.245612 4.421319 -1.380543
H -0.161134 3.367029 -2.358325
O -0.516363 -2.198439 0.459271
H 0.301840 -2.576363 0.828825
