74

Ir 0.000079 -0.085542 -0.044619
P -2.336076 0.046052 -0.018269
C -3.072701 -2.484299 0.958522
C -3.227310 -1.571707 -0.107977
C -3.064088 1.003211 -1.417172
C -2.362861 1.025401 -2.639933
C -2.907619 1.685947 -3.750819
C -4.146900 2.338851 -3.645047
C -4.841939 2.328426 -2.424652
C -4.305282 1.661063 -1.312393
C -3.047830 0.818943 1.505703
C -2.313687 1.823276 2.171297
C -2.845664 2.440868 3.313347
C -4.106270 2.063149 3.804094
C -4.839543 1.062953 3.145843
C -4.314784 0.441222 2.001655
C -4.009036 -1.938868 -1.220988
C -4.626476 -3.200169 -1.264483
C -4.473880 -4.100365 -0.199361
C -3.696104 -3.738097 0.913781
H -2.457843 -2.210025 1.830014
H -1.376958 0.536949 -2.698480
H -2.352845 1.702178 -4.701486
H -4.569434 2.865101 -4.515066
H -5.808745 2.847422 -2.334560
H -4.851638 1.661939 -0.357048
H -1.329438 2.120686 1.777838
H -2.264661 3.223009 3.826046
H -4.517420 2.546441 4.703985
H -5.827500 0.759611 3.525613
H -4.892392 -0.348603 1.497760
H -4.137650 -1.236730 -2.058091
H -5.233457 -3.477401 -2.140175
H -4.959029 -5.087870 -0.235988
H -3.567100 -4.440555 1.751346
P 2.348338 -0.018877 0.002361
C 2.211235 -0.337131 2.790701
C 3.023385 0.088610 1.719353
C 3.210210 1.361057 -0.867440
C 3.122840 2.661547 -0.323948
C 3.744022 3.737891 -0.972309
C 4.443684 3.534039 -2.173297
C 4.524185 2.245019 -2.722087
C 3.912653 1.160564 -2.072304
C 3.141186 -1.525628 -0.720917
C 2.543712 -2.088124 -1.869528
C 3.118234 -3.207043 -2.490188
C 4.284849 -3.783571 -1.961737
C 4.875318 -3.235668 -0.811792
C 4.310340 -2.108777 -0.193808
C 4.326167 0.564940 1.982703
C 4.810780 0.599305 3.299352
C 4.001028 0.163480 4.361506
C 2.701314 -0.302104 4.105155
H 1.184093 -0.675568 2.576326
H 2.564722 2.829991 0.607854
H 3.672473 4.747179 -0.538433
H 4.927199 4.382403 -2.681915
H 5.072281 2.076179 -3.661827
H 3.989782 0.152510 -2.505854
H 1.611932 -1.646914 -2.259923
H 2.643491 -3.638141 -3.384895
H 4.729914 -4.668460 -2.442306
H 5.783376 -3.690702 -0.386966
H 4.778209 -1.690472 0.709679
H 4.959111 0.921803 1.155608
H 5.827082 0.973962 3.496751
H 4.382616 0.195592 5.393806
H 2.058360 -0.633017 4.935163
C 0.022735 -1.955096 0.194848
O 0.043893 -3.116634 0.330300
C -0.054951 1.925039 -0.366252
C -0.134819 3.143692 -0.582728
H -0.196529 4.202568 -0.793060
