26

Ir 0.016392 -0.492691 -0.081235
N 2.060474 -0.454598 -0.081016
C 2.762903 0.427409 -0.845265
C 4.162755 0.444391 -0.818779
N 4.896127 -0.383741 -0.058089
C 4.193466 -1.248530 0.691658
C 2.795191 -1.300035 0.693286
H 2.176594 1.120452 -1.463547
H 4.703750 1.169752 -1.450703
H 4.760247 -1.944344 1.334348
H 2.237585 -2.016436 1.311541
N -2.053318 -0.483845 -0.087343
C -4.866545 -0.432186 -0.059093
C -4.140840 0.363658 -0.956862
C -2.743885 0.316667 -0.942959
C -2.756315 -1.259494 0.779525
C -4.153316 -1.257098 0.822937
H -5.966655 -0.410151 -0.046692
H -4.645330 1.030238 -1.670820
H -2.133215 0.935350 -1.614652
H -2.157213 -1.891668 1.449311
H -4.667746 -1.901438 1.550148
C 0.022468 -2.322598 -0.213775
N 0.024567 -3.545759 -0.137426
H 0.026270 -4.219643 -0.907835
I -0.032957 2.221653 0.290700
