33

Ir 0.178907 -0.094309 -0.036454
N 2.303500 -0.003289 0.009993
C 4.547208 0.748903 0.262743
O 4.467465 -0.636198 -0.192883
C 3.162212 -0.927165 -0.280427
C 3.075133 1.203903 0.380535
H 2.799433 2.030933 -0.302479
H 2.778539 1.526292 1.397139
H 5.135804 1.316263 -0.485651
H 5.095607 0.753993 1.226450
H 2.905422 -1.947184 -0.600937
C -1.814512 -0.000819 -0.028316
C -3.979621 0.795723 -0.439705
C -4.061858 -0.404381 0.516907
H -4.199115 1.760718 0.075841
H -4.502232 -1.306522 0.028667
C -2.262180 -1.628341 1.807500
H -2.523397 -2.657971 1.470952
H -1.164974 -1.558906 1.941746
H -2.764703 -1.437535 2.779516
C -2.071360 1.706630 -1.823675
H -2.093820 2.744388 -1.423481
H -1.017642 1.444663 -2.039529
H -2.672603 1.658695 -2.756413
N -2.579233 0.757557 -0.859378
N -2.653726 -0.633954 0.837320
H -4.654102 -0.194068 1.431512
H -4.665135 0.711649 -1.308239
C 0.161851 -1.878680 -0.609936
O 0.123560 -3.006404 -0.938639
C 0.117926 1.833184 0.654955
C 0.049412 3.000922 1.070482
H -0.000147 4.015749 1.442161
