26

Ir 0.017044 0.189872 -0.033990
N -2.036741 0.124008 -0.065311
C -2.687810 -0.928063 -0.632991
C -4.086125 -0.995766 -0.623830
N -4.862415 -0.052295 -0.069104
C -4.210879 0.980389 0.488263
C -2.815442 1.084489 0.501218
H -2.070141 -1.707668 -1.100242
H -4.587516 -1.859864 -1.092358
H -4.817540 1.773990 0.957508
H -2.299990 1.933884 0.969714
N 2.071367 0.074376 0.003512
C 2.852843 1.011595 0.606099
C 4.247386 0.901715 0.588283
N 4.892983 -0.114637 -0.005937
C 4.111313 -1.037543 -0.586795
C 2.711639 -0.963118 -0.599241
H 2.340798 1.848800 1.100055
H 4.858614 1.677431 1.081000
H 4.609118 -1.889555 -1.080734
H 2.066333 -1.737905 -1.045629
C 0.053433 2.014335 -0.367841
O 0.065119 3.170560 -0.546833
N -0.095280 -1.877680 0.431024
O 0.372230 -2.744091 -0.338721
O -0.719805 -2.194455 1.451755
