34

Ir -0.023820 0.348165 0.068987
As 2.413453 0.090962 0.009307
C 3.136219 -0.612535 -1.670822
C 3.135881 -1.182785 1.311623
C 3.534249 1.673646 0.312773
H 2.589510 -1.549289 -1.891675
H 4.223684 -0.805084 -1.586533
H 2.940730 0.117713 -2.478897
H 2.594039 -2.136939 1.165815
H 2.932845 -0.805241 2.331854
H 4.224811 -1.325839 1.168375
H 3.295157 2.432674 -0.456597
H 4.610400 1.416762 0.265323
H 3.292363 2.096273 1.306818
C -2.060221 0.272403 0.075833
C -4.218587 -0.409038 0.668305
C -4.292952 0.428453 -0.620647
H -4.417179 -1.490077 0.480880
H -4.785513 1.416252 -0.460688
C -2.466376 1.275561 -2.164697
H -2.859767 2.316148 -2.212899
H -1.358658 1.300263 -2.177837
H -2.830845 0.718662 -3.054203
C -2.308903 -0.865492 2.268348
H -2.302441 -1.972587 2.158958
H -1.264063 -0.527659 2.414032
H -2.923656 -0.585917 3.149528
N -2.824242 -0.223173 1.079427
N -2.877331 0.616403 -0.947629
H -4.829777 -0.085982 -1.444448
H -4.921142 -0.065690 1.455548
C 0.053703 2.137367 0.407132
O 0.117432 3.293368 0.617923
Br -0.117910 -2.162284 -0.432730
