26

Ir 0.143141 -0.043037 -0.012362
N 2.216455 0.013675 0.013632
C 4.386079 -0.559289 0.248247
C 3.089019 -1.022353 0.320379
N 4.286155 0.771504 -0.107114
C 2.972728 1.091798 -0.242159
H 5.060452 1.421075 -0.244164
H 5.345978 -1.054790 0.419788
H 2.720764 -2.019958 0.575019
H 2.582070 2.083466 -0.497799
N -1.910327 0.018309 0.009258
C -4.742019 0.136587 0.074264
C -4.074395 -0.950130 -0.509333
C -2.678676 -0.975236 -0.525067
C -2.566150 1.076291 0.573303
C -3.959098 1.163201 0.621461
H -5.840847 0.182611 0.099504
H -4.625927 -1.787939 -0.960174
H -2.131942 -1.813722 -0.974499
H -1.926916 1.873005 0.975725
H -4.416220 2.046415 1.090516
C 0.162361 -1.916904 0.079150
N 0.200100 -3.132107 0.203346
H 0.217182 -3.882431 -0.489321
C 0.180418 2.006333 -0.222091
N 0.260757 3.180671 -0.340785
