36

Ir -0.070024 -0.155149 0.088323
N -2.215424 -0.203018 0.090306
C -5.025591 -0.393991 0.072852
C -4.223269 -1.544895 0.082710
C -2.831301 -1.415029 0.091001
C -2.991046 0.911102 0.087120
C -4.388024 0.855952 0.076339
H -6.123738 -0.468355 0.064465
H -4.667543 -2.551199 0.083819
H -2.130619 -2.267342 0.113756
H -2.452933 1.870415 0.093923
H -4.963688 1.793171 0.073711
C 1.913328 -0.298188 0.080518
C 4.066258 -1.101813 -0.437495
C 4.196949 0.167629 0.422226
H 4.420453 -2.017353 0.092184
H 4.622557 1.026582 -0.149056
C 2.503268 1.482959 1.746102
H 2.682665 2.497220 1.323340
H 1.436152 1.402330 2.023821
H 3.130365 1.364680 2.656282
C 2.082880 -2.219569 -1.522507
H 2.573468 -3.188131 -1.282444
H 1.003549 -2.322213 -1.306252
H 2.256211 -1.998101 -2.599235
N 2.625793 -1.179914 -0.674679
N 2.811554 0.437960 0.799501
H 4.834310 0.021052 1.320378
H 4.626913 -1.035990 -1.394333
C 0.010536 1.642137 -0.212045
N 0.041561 2.860386 -0.340829
C 0.121222 3.831690 -1.387980
H 1.087519 4.380361 -1.340368
H -0.680383 4.593235 -1.277819
H 0.032562 3.378890 -2.401037
F -0.194623 -2.160953 0.376761
