41

Ir -0.149704 -0.116303 0.028190
N -2.270050 -0.155161 -0.031423
C -2.944785 -1.009948 -0.844069
C -4.346021 -1.019143 -0.872744
N -5.100638 -0.203676 -0.119621
C -4.422274 0.633546 0.683117
C -3.024271 0.670589 0.740051
H -2.334385 -1.692770 -1.453030
H -4.869613 -1.722404 -1.543514
H -5.011048 1.314419 1.322394
H -2.483144 1.365069 1.398227
P 2.129500 -0.146323 0.008793
C 2.980711 1.509709 0.145600
C 2.954188 -0.844639 -1.513089
C 2.682657 -2.314961 -1.828550
C 2.918296 -1.092365 1.404584
C 2.479610 -0.603951 2.786811
C 2.924298 2.375676 -1.115933
H 2.486507 2.025889 0.993983
H 4.033977 1.319375 0.445931
H 2.595889 -0.205288 -2.346470
H 4.044520 -0.650769 -1.402138
H 2.619443 -2.151769 1.265540
H 4.021509 -1.040817 1.272592
H 1.595221 -2.511188 -1.915407
H 3.166116 -2.600000 -2.785399
H 3.086147 -2.989480 -1.045371
H 2.780903 0.447529 2.971444
H 1.376229 -0.661279 2.880462
H 2.931565 -1.225880 3.586211
H 3.559224 1.967515 -1.927380
H 1.890831 2.455411 -1.508430
H 3.285009 3.402645 -0.901914
C -0.181657 1.745732 0.061031
N -0.268567 2.946009 0.250843
C -0.317787 4.198794 -0.432917
H 0.574220 4.810710 -0.180187
H -1.208631 4.779213 -0.113522
H -0.356549 4.078817 -1.538615
S -0.365086 -2.498133 0.250583
H 0.899109 -2.999097 0.230816
