29

Ir -0.146690 0.303788 0.009991
P -2.419534 0.230817 0.027240
C -3.121130 -0.735161 1.430315
C -3.175589 -0.558499 -1.456651
C -3.314750 1.839004 0.139483
H -2.680420 -1.750311 1.391074
H -4.227206 -0.789395 1.368772
H -2.819115 -0.256613 2.381851
H -2.744681 -1.573890 -1.553316
H -2.900231 0.026160 -2.355559
H -4.279610 -0.611800 -1.364505
H -2.978689 2.384600 1.042027
H -4.410419 1.676797 0.183459
H -3.068679 2.455821 -0.746404
N 1.993692 0.221670 0.021862
C 4.803687 0.094276 0.036796
C 4.039334 -0.781216 0.820694
C 2.643317 -0.692373 0.785820
C 2.733457 1.069875 -0.734669
C 4.131178 1.035484 -0.756846
H 5.903120 0.044624 0.043240
H 4.512622 -1.539480 1.461038
H 2.001261 -1.375514 1.360354
H 2.165486 1.793653 -1.336152
H 4.678519 1.744478 -1.394651
C -0.135981 2.125660 0.163766
N -0.123463 3.333787 0.384214
H -0.122445 4.083446 -0.312290
Br -0.175832 -2.241057 -0.193189
