29

Ir -0.000097 -0.163266 -0.038431
N 2.049490 -0.213097 -0.043321
C 2.743483 -1.242878 0.521497
C 4.143317 -1.260253 0.511452
N 4.891808 -0.293748 -0.044385
C 4.200561 0.710156 -0.608052
C 2.803443 0.767589 -0.617094
H 2.149671 -2.056988 0.958479
H 4.671830 -2.107499 0.981326
H 4.777432 1.521579 -1.085277
H 2.260845 1.598917 -1.086092
N -2.049663 -0.212654 -0.043384
C -2.803372 0.767482 -0.618366
C -4.200502 0.710382 -0.609195
N -4.891927 -0.292669 -0.044231
C -4.143664 -1.258687 0.512735
C -2.743821 -1.241634 0.522665
H -2.260550 1.598072 -1.088370
H -4.777238 1.521336 -1.087373
H -4.672369 -2.105244 0.983634
H -2.150155 -2.055364 0.960540
C 0.000462 1.748818 0.147512
N 0.002075 2.939859 0.269385
C 0.000521 4.292832 0.660584
H 0.953193 4.556629 1.167684
H -0.832425 4.499213 1.366524
H -0.117490 4.963297 -0.217117
C -0.000500 -2.195190 -0.155796
N -0.001045 -3.378283 -0.165839
