30

Ir 0.050703 -0.164849 -0.036436
As 2.508508 -0.077139 -0.007339
C 3.232184 0.196728 1.784794
C 3.320772 1.371825 -1.036326
C 3.454787 -1.666782 -0.645938
H 2.753614 1.116358 2.170161
H 4.333710 0.305894 1.749414
H 2.950566 -0.662619 2.421908
H 2.928503 2.323891 -0.632211
H 3.027012 1.272355 -2.098061
H 4.423279 1.334068 -0.939473
H 3.116591 -2.545703 -0.064632
H 4.548715 -1.539118 -0.531831
H 3.205162 -1.829546 -1.711704
P -2.227116 -0.068675 -0.001692
C -5.354460 0.035564 0.089463
C -4.645288 1.235043 -0.109446
C -3.249903 1.324208 -0.173158
C -3.331436 -1.389972 0.224398
C -4.720391 -1.210438 0.244689
H -6.453865 0.073472 0.121785
H -5.223359 2.167107 -0.227362
H -2.742099 2.285020 -0.348598
H -2.904059 -2.396954 0.352883
H -5.352918 -2.101947 0.392040
C 0.044387 -2.020724 -0.107119
O 0.061672 -3.190034 -0.140579
N 0.175793 1.956908 0.064476
O -0.456606 2.667919 -0.728223
O 0.942001 2.461585 0.911219
