27

Ir 0.142498 -0.235866 -0.003273
N 2.205139 -0.170939 0.011848
C 4.375423 -0.677959 0.342697
C 3.082137 -1.139504 0.478252
N 4.266014 0.581270 -0.214363
C 2.948989 0.861224 -0.405235
H 5.036244 1.208288 -0.446211
H 5.339055 -1.129606 0.595249
H 2.716759 -2.092230 0.872738
H 2.552085 1.792542 -0.819025
N -1.903364 -0.178477 0.022879
C -4.724432 -0.006852 0.065626
C -4.071484 -1.018334 -0.655098
C -2.676302 -1.072389 -0.656390
C -2.540496 0.800988 0.727161
C -3.932344 0.914604 0.765551
H -5.822461 0.059542 0.082422
H -4.634540 -1.771314 -1.225372
H -2.132961 -1.848196 -1.211260
H -1.884034 1.502736 1.257497
H -4.381930 1.728869 1.352001
C 0.167319 -2.067437 0.018671
N 0.212125 -3.291897 0.133043
H 0.233948 -3.965514 -0.638108
N 0.154782 1.813196 -0.073523
C 0.127902 3.018066 -0.156559
O 0.115288 4.216257 -0.234395
