28

Ir -0.171205 0.040957 -0.000023
N 1.878620 -0.049969 -0.010266
C 3.991816 -0.826441 0.111068
C 2.663193 -1.167273 0.254505
N 4.004948 0.508645 -0.241457
C 2.719631 0.950679 -0.310029
H 4.831098 1.075718 -0.429668
H 4.906445 -1.415185 0.225900
H 2.204041 -2.127897 0.507465
H 2.424304 1.973803 -0.560961
N -2.354908 -0.026793 -0.062748
C -2.770557 -0.786758 -1.275790
C -2.862859 -0.726186 1.150381
C -2.982591 1.317285 -0.125474
H -2.438029 -1.744984 1.189208
H -3.975889 -0.779669 1.122597
H -2.538817 -0.170983 2.049555
H -2.611576 1.859074 -1.013804
H -2.714695 1.895000 0.777046
H -4.090542 1.219981 -0.183413
H -2.350213 -1.806999 -1.230502
H -2.376083 -0.277081 -2.173924
H -3.882520 -0.836737 -1.331011
C -0.092118 1.899344 0.153807
N 0.027219 3.119127 0.221367
H 0.034977 3.712909 1.054443
C -0.218763 -2.021647 0.038750
N -0.259623 -3.203104 0.095320
