52

Ir -0.914603 -0.348029 -0.004810
P 1.430817 -0.083437 0.018647
C 1.655306 -1.532536 -2.366453
C 2.287622 -1.238788 -1.138864
C 2.221014 -0.396526 1.655584
C 1.630156 -1.326462 2.536482
C 2.240232 -1.613625 3.766724
C 3.435334 -0.971980 4.130861
C 4.022694 -0.039760 3.260089
C 3.420531 0.249085 2.025593
C 2.034815 1.584348 -0.462651
C 1.695169 2.676382 0.365634
C 2.054328 3.978512 -0.005844
C 2.763777 4.200756 -1.198088
C 3.114381 3.116584 -2.017019
C 2.748032 1.809523 -1.656468
C 3.542401 -1.810020 -0.848994
C 4.157653 -2.663392 -1.778983
C 3.530135 -2.946729 -3.002759
C 2.278922 -2.378328 -3.295980
H 0.664239 -1.097737 -2.577321
H 0.685226 -1.816066 2.256170
H 1.771182 -2.338232 4.449731
H 3.907264 -1.193316 5.100562
H 4.955503 0.471347 3.543945
H 3.879060 0.987049 1.349675
H 1.132237 2.510295 1.295818
H 1.756226 4.823883 0.631625
H 3.038219 5.225356 -1.492285
H 3.672678 3.285926 -2.950566
H 3.016433 0.965645 -2.309271
H 4.038266 -1.595146 0.109607
H 5.135064 -3.111443 -1.542719
H 4.015952 -3.616134 -3.729368
H 1.781684 -2.598281 -4.253297
P -3.191611 -0.563216 0.005354
C -6.308297 -0.853124 0.056753
C -5.752353 0.438199 -0.013149
C -4.378238 0.705445 -0.042333
C -4.125197 -2.024937 0.090664
C -5.525608 -2.021016 0.106953
H -7.404146 -0.953250 0.075068
H -6.441170 1.299078 -0.046543
H -4.014777 1.744052 -0.094513
H -3.570260 -2.975055 0.139582
H -6.044364 -2.992861 0.164898
C -0.687095 -2.188030 -0.046203
N -0.550692 -3.399721 0.021437
H -0.344793 -4.069625 -0.722738
N -1.192375 1.661626 -0.004817
C -1.486094 2.825963 -0.011917
S -1.875601 4.389493 -0.010118
