33

Ir 0.084697 -0.103103 0.009127
As -2.282303 -0.173568 0.040212
C -3.065159 -1.159152 1.544397
C -3.167118 -1.011674 -1.501565
C -3.242240 1.534875 0.136883
H -2.585068 -2.155535 1.576177
H -4.163954 -1.251996 1.438217
H -2.814833 -0.622089 2.478942
H -2.765077 -2.034066 -1.632364
H -2.923115 -0.422342 -2.405773
H -4.264654 -1.050144 -1.355891
H -2.880018 2.094998 1.019560
H -4.334378 1.367893 0.211592
H -3.013137 2.123493 -0.771929
N 2.198677 -0.143946 0.017584
C 5.014785 -0.201863 0.055831
C 4.288962 -1.025835 -0.815127
C 2.890557 -0.972097 -0.809304
C 2.903024 0.655827 0.862079
C 4.299524 0.653319 0.908908
H 6.114972 -0.223951 0.070746
H 4.794145 -1.716809 -1.505495
H 2.275476 -1.615859 -1.455245
H 2.303049 1.311881 1.508278
H 4.814042 1.320448 1.615623
C 0.065095 1.756058 0.028055
N 0.045238 2.970781 0.133373
C 0.051052 4.159366 -0.658957
H 0.828599 4.864727 -0.297223
H -0.924342 4.685687 -0.572453
H 0.240277 3.952393 -1.736015
S 0.199944 -2.510128 0.035011
H -1.045045 -2.920760 -0.340569
