39

Ir 0.001585 -0.010658 -0.081764
C -2.070801 0.077294 -0.075607
C -4.339972 -0.563647 -0.110502
C -4.236255 0.911040 0.305336
H -4.807162 -0.692784 -1.115753
H -4.500441 1.067683 1.378071
C -2.299332 2.532707 0.321556
H -2.181108 2.745408 1.408831
H -1.328801 2.618924 -0.206855
H -3.007541 3.273806 -0.104197
C -2.600524 -2.322677 -0.548305
H -3.166317 -2.608563 -1.463952
H -1.517900 -2.363872 -0.768898
H -2.837607 -3.055084 0.253850
N -2.935035 -0.974493 -0.153146
N -2.817331 1.199823 0.087346
H -4.881582 1.583988 -0.297772
H -4.921240 -1.180525 0.607224
C 2.055282 0.077611 -0.073124
C 4.332206 -0.525335 -0.202298
C 4.219428 0.902231 0.352910
H 4.936674 -1.198474 0.441715
H 4.859517 1.634952 -0.182064
C 2.258983 2.456119 0.646967
H 2.849235 3.297946 0.227493
H 1.211920 2.531384 0.297446
H 2.291271 2.522356 1.758824
C 2.594876 -2.268420 -0.736688
H 2.871076 -3.051922 0.001762
H 1.503099 -2.301492 -0.913307
H 3.124710 -2.481672 -1.692506
N 2.931797 -0.948737 -0.255088
N 2.796495 1.198421 0.170781
H 4.483512 0.955187 1.435852
H 4.779325 -0.552100 -1.224425
C 0.009588 -1.413623 1.089995
O 0.040500 -2.336829 1.826895
O -0.051101 1.570443 -1.393004
H 0.829769 1.701751 -1.787362
