54

Ir 1.406485 -0.093651 0.047635
P -0.840134 0.050319 0.014080
C -1.685579 -2.433178 1.032410
C -1.725155 -1.574443 -0.088088
C -1.535596 0.989896 -1.422274
C -0.760301 1.062689 -2.597473
C -1.261897 1.713291 -3.734954
C -2.535437 2.304392 -3.704801
C -3.306514 2.243923 -2.532195
C -2.810959 1.588920 -1.394124
C -1.645096 0.830661 1.494681
C -0.944375 1.811541 2.226534
C -1.548822 2.433682 3.329750
C -2.851875 2.083260 3.718562
C -3.553634 1.104837 2.996443
C -2.955184 0.480165 1.890681
C -2.345104 -2.017029 -1.271335
C -2.916327 -3.299638 -1.334060
C -2.879005 -4.146814 -0.216590
C -2.263855 -3.708408 0.969802
H -1.193820 -2.096056 1.958880
H 0.246959 0.614945 -2.592695
H -0.648471 1.767398 -4.647614
H -2.926119 2.821172 -4.595233
H -4.301157 2.715120 -2.500017
H -3.418102 1.555673 -0.477073
H 0.074394 2.088047 1.914563
H -0.991474 3.198635 3.892425
H -3.320682 2.569991 4.587947
H -4.574555 0.820935 3.295800
H -3.511224 -0.293169 1.339062
H -2.379211 -1.357864 -2.151816
H -3.395967 -3.635945 -2.266253
H -3.331209 -5.149373 -0.266982
H -2.236283 -4.365438 1.853330
N 3.673424 -0.046559 0.119419
C 4.164404 0.567702 -1.138119
C 4.079840 0.786924 1.277518
C 4.273252 -1.391547 0.265325
H 3.644986 1.796804 1.167330
H 5.192019 0.852313 1.335067
H 3.689484 0.332037 2.207152
H 3.982321 -2.028860 -0.588922
H 3.904223 -1.863190 1.194315
H 5.384956 -1.316626 0.307720
H 3.723623 1.575667 -1.244292
H 3.843864 -0.053423 -1.995233
H 5.277892 0.637120 -1.126457
C 1.345269 -1.977819 -0.027089
N 1.312630 -3.172577 -0.267408
H 1.024508 -3.978717 0.286869
C 1.472681 1.950176 -0.086217
C 1.535002 3.184286 -0.218703
H 1.564926 4.258306 -0.345134
