29

Ir 0.162430 0.166843 0.022147
N -1.887771 0.101230 -0.015880
C -4.051855 0.582641 -0.416443
C -2.752415 0.989985 -0.638244
N -3.956398 -0.563187 0.349182
C -2.643778 -0.828661 0.582765
H -4.733724 -1.130169 0.687031
H -5.010207 1.003789 -0.733400
H -2.379130 1.855350 -1.191833
H -2.228504 -1.695573 1.113777
N 2.350189 0.101581 0.062511
C 2.825095 -1.032992 0.904931
C 2.828262 -0.095712 -1.334070
C 2.944832 1.345695 0.613604
H 2.354355 -1.012240 -1.733215
H 3.939357 -0.189456 -1.350997
H 2.519776 0.771372 -1.946376
H 2.570118 1.510641 1.640236
H 2.653262 2.209970 -0.008004
H 4.055324 1.262969 0.628690
H 2.518743 -1.988752 0.448392
H 2.383802 -0.946987 1.914963
H 3.935900 -1.008069 0.979876
C 0.100174 2.006930 0.099499
N -0.012283 3.222621 0.216973
H 0.055277 3.941922 -0.506486
N 0.160593 -1.966684 -0.174105
O 0.799850 -2.510271 -1.099086
O -0.452810 -2.678225 0.650211
