35

Ir -0.173679 -0.138668 -0.083849
N -2.287074 -0.153967 -0.082979
C -4.482841 -1.026146 -0.163693
O -4.437292 0.307677 0.435036
C -3.136451 0.639262 0.482920
C -3.060842 -1.248859 -0.710732
H -2.988734 -1.139241 -1.812789
H -2.586711 -2.214275 -0.453956
H -5.276719 -1.026486 -0.934861
H -4.760231 -1.740595 0.640420
H -2.872112 1.573520 0.999584
C 1.799594 -0.330971 -0.033560
C 4.110578 0.034878 -0.312914
C 3.897406 -1.167676 0.615120
H 4.517046 -0.266392 -1.308773
H 4.161062 -0.932181 1.674472
C 1.842590 -2.496805 1.214782
H 1.814323 -2.303493 2.311986
H 0.819777 -2.637252 0.816236
H 2.426598 -3.424216 1.037823
C 2.526123 1.672193 -1.350498
H 3.056209 1.513920 -2.318038
H 1.441526 1.747489 -1.551634
H 2.889915 2.626894 -0.910212
N 2.753517 0.557663 -0.461467
N 2.461281 -1.403578 0.493104
H 4.483171 -2.062402 0.316522
H 4.798843 0.796900 0.110262
C -0.093844 1.603235 0.455104
N -0.110514 2.746146 0.895652
C 0.029226 4.088585 0.425786
H 1.048219 4.478684 0.645808
H -0.686599 4.762613 0.942111
H -0.140839 4.181599 -0.671245
F -0.398094 -2.061007 -0.689080
