37

Ir 0.030350 0.217222 -0.075821
As -2.409049 -0.042527 -0.005095
C -3.138431 -0.220656 1.803648
C -3.154832 -1.626539 -0.886048
C -3.508583 1.401832 -0.754772
H -2.604700 -1.074413 2.261869
H -4.230612 -0.403946 1.780581
H -2.917711 0.702103 2.373125
H -2.659370 -2.506760 -0.434646
H -2.919580 -1.585585 -1.966538
H -4.251129 -1.680546 -0.738189
H -3.205436 2.358070 -0.286913
H -4.585481 1.216729 -0.574841
H -3.318571 1.467685 -1.843411
C 2.063831 0.189129 -0.020426
C 4.239024 -0.452223 -0.573594
C 4.261585 0.262411 0.787371
H 4.385946 -1.552630 -0.470942
H 4.749219 1.264900 0.735482
C 2.364939 0.964130 2.322512
H 2.754316 1.996081 2.477194
H 1.257326 0.994057 2.283554
H 2.686804 0.333799 3.178651
C 2.409187 -0.730037 -2.296137
H 2.403764 -1.840549 -2.267914
H 1.366036 -0.387291 -2.445945
H 3.051057 -0.371800 -3.128228
N 2.875066 -0.184713 -1.039256
N 2.832593 0.409067 1.074115
H 4.773620 -0.321878 1.579411
H 4.996602 -0.067297 -1.286658
C -0.076534 2.038408 -0.422716
N -0.185690 3.249638 -0.540849
H -0.068869 3.852739 -1.355798
N 0.154750 -1.881606 0.337495
O 1.047463 -2.578521 -0.176831
O -0.672422 -2.399175 1.121446
