28

Ir 0.000882 0.026593 0.008606
P -2.291165 0.010643 0.008306
C -5.425206 0.026609 -0.016699
C -4.749072 1.237259 0.221164
C -3.354834 1.361355 0.257056
C -3.362648 -1.326558 -0.274214
C -4.755298 -1.188537 -0.252618
H -6.525711 0.031549 -0.026056
H -5.352270 2.145539 0.388472
H -2.889941 2.342310 0.441082
H -2.894170 -2.301465 -0.483645
H -5.363716 -2.089317 -0.440627
P 2.279273 0.006009 -0.020411
C 5.415370 0.022123 -0.010207
C 4.746531 -1.113211 0.482650
C 3.352888 -1.242300 0.535644
C 3.344177 1.275117 -0.545377
C 4.738359 1.156336 -0.496250
H 6.515877 0.026341 -0.009515
H 5.355093 -1.952661 0.859287
H 2.886750 -2.149369 0.950898
H 2.876977 2.191554 -0.938968
H 5.341571 2.004543 -0.861705
C 0.010843 1.891961 0.111276
N 0.022652 3.113308 0.076570
H 0.137986 3.762017 0.860268
S -0.065259 -2.378070 -0.074022
H 1.140919 -2.653476 -0.646744
