26

Ir 0.142362 0.035324 -0.009876
N -1.889937 -0.008318 0.005071
C -2.593875 -1.075118 -0.479988
C -3.991949 -1.090882 -0.459308
N -4.742189 -0.087665 0.027329
C -4.042845 0.955199 0.506648
C -2.646680 1.014237 0.505474
H -1.999794 -1.915262 -0.863538
H -4.521420 -1.970864 -0.864567
H -4.614188 1.803441 0.922949
H -2.105746 1.883051 0.902540
N 2.215443 0.001565 0.005642
C 4.379923 0.612388 0.160367
C 3.079377 1.068029 0.213497
N 4.288551 -0.745261 -0.082421
C 2.976656 -1.086229 -0.172043
H 5.068685 -1.395793 -0.174258
H 5.337449 1.128444 0.275401
H 2.701728 2.080072 0.384915
H 2.581997 -2.096487 -0.329967
C 0.148742 1.903942 -0.237284
N 0.165035 3.126614 -0.291282
H 0.140613 3.743412 -1.106601
C 0.168254 -2.005709 0.207519
C 0.190177 -3.241401 0.337127
H 0.183831 -4.315237 0.471167
