24

Ir 0.000527 0.080131 -0.013379
N -2.051325 0.057306 0.020100
C -4.320216 -0.645291 -0.040445
O -4.186210 0.805542 0.046263
C -2.874482 1.063145 0.032354
C -2.876997 -1.177663 0.063062
H -2.578802 -1.850557 -0.762187
H -2.656695 -1.718622 1.004099
H -4.807958 -0.877378 -1.009529
H -4.983273 -0.974344 0.783096
H -2.577519 2.121126 0.035538
N 2.045417 -0.027572 -0.037832
C 4.349139 0.437068 0.293197
O 4.118690 -0.872464 -0.304457
C 2.793755 -1.023403 -0.407859
C 2.944245 1.071710 0.379330
H 2.805657 1.933963 -0.304617
H 2.671547 1.404988 1.399283
H 5.055634 0.989179 -0.356649
H 4.822464 0.275584 1.283197
H 2.401519 -1.983809 -0.771363
C 0.025452 1.892428 -0.116756
O 0.032220 3.070790 -0.181407
Cl -0.006752 -2.319839 0.126644
