45

Ir -0.125463 -0.233309 0.015596
P 2.184296 -0.479341 -0.040002
C 3.093315 -0.106293 1.540771
C 2.988809 0.660369 -1.266465
C 2.437368 0.519374 -2.686927
C 2.852647 -2.150569 -0.518711
C 2.738880 -3.229894 0.561375
C 2.791937 1.261562 2.157162
H 2.808883 -0.914585 2.246386
H 4.178988 -0.229786 1.327857
H 2.816958 1.690332 -0.890176
H 4.084725 0.474609 -1.226484
H 2.281468 -2.444201 -1.423670
H 3.910971 -2.013512 -0.830531
H 1.342814 0.696499 -2.695170
H 2.912991 1.256194 -3.365512
H 2.618507 -0.490756 -3.108666
H 3.419945 -3.035633 1.413892
H 1.708469 -3.296710 0.963052
H 3.005067 -4.224517 0.148665
H 3.057121 2.102690 1.485838
H 1.713520 1.361764 2.388099
H 3.363804 1.391947 3.098465
As -2.499153 0.323049 0.026045
C -3.053126 1.474399 -1.459779
C -3.085871 1.375488 1.571594
C -3.823987 -1.121243 -0.037782
H -2.398013 2.366509 -1.454610
H -4.113607 1.776929 -1.355662
H -2.904444 0.928698 -2.410730
H -2.430013 2.264526 1.637778
H -2.958529 0.769660 2.488619
H -4.143515 1.686416 1.463870
H -3.630837 -1.738626 -0.935831
H -4.853716 -0.715509 -0.071665
H -3.700610 -1.756268 0.860397
C -0.466505 -2.053370 -0.128988
N -0.725109 -3.218993 -0.337541
C -0.969439 -4.524093 0.163082
H -0.203772 -5.237538 -0.210418
H -1.957694 -4.898196 -0.180276
H -0.955662 -4.555496 1.275771
N 0.188063 1.785892 0.091730
C 0.565160 2.925624 0.049364
S 1.108664 4.445150 -0.002947
