31

Ir -0.047738 0.154239 0.000784
As -2.502280 0.084107 -0.061866
C -3.314189 -0.156973 1.699094
C -3.278615 -1.385922 -1.090525
C -3.422896 1.657339 -0.776603
H -2.852976 -1.069260 2.122054
H -4.412888 -0.269036 1.615688
H -3.063863 0.712099 2.336227
H -2.907009 -2.328998 -0.647329
H -2.938127 -1.313633 -2.140462
H -4.384226 -1.343703 -1.043034
H -3.095097 2.552354 -0.214861
H -4.520595 1.538935 -0.692792
H -3.137030 1.785769 -1.837885
P 2.220311 0.064282 0.003147
C 5.352894 -0.047008 -0.005034
C 4.634366 -1.252197 -0.119098
C 3.237636 -1.338311 -0.130773
C 3.337245 1.389862 0.123126
C 4.725784 1.207215 0.106274
H 6.452741 -0.087066 -0.008033
H 5.206150 -2.191292 -0.209747
H 2.722357 -2.304579 -0.244393
H 2.914104 2.403113 0.205210
H 5.364971 2.103032 0.183815
C -0.028528 2.021571 0.003815
N -0.019870 3.237195 -0.050738
H -0.094197 3.972908 0.651657
N -0.192299 -1.967877 0.120896
O 0.432817 -2.701356 -0.658889
O -0.968428 -2.453084 0.972029
