32

Ir -0.001868 -0.013231 -0.005343
N 2.160260 -0.180738 -0.025389
C 2.862440 1.096747 -0.298447
C 2.607893 -0.688904 1.296127
C 2.520024 -1.163318 -1.086329
H 2.305910 0.027036 2.081779
H 3.714883 -0.825506 1.309276
H 2.122607 -1.660578 1.496678
H 2.247185 -0.737909 -2.069462
H 1.916638 -2.076384 -0.927347
H 3.613174 -1.378764 -1.058389
H 2.607825 1.836401 0.481488
H 2.528744 1.490752 -1.274945
H 3.964318 0.932248 -0.317779
N -2.156028 -0.155546 -0.022955
C -2.856164 1.140648 -0.180896
C -2.525780 -1.052192 -1.153484
C -2.580589 -0.785613 1.255897
H -2.227598 -0.572035 -2.103649
H -3.625565 -1.233100 -1.153119
H -1.969531 -2.000132 -1.029472
H -2.297330 -0.124326 2.095237
H -2.045480 -1.747922 1.346997
H -3.683769 -0.947593 1.257423
H -2.545475 1.611245 -1.130942
H -2.581204 1.817849 0.647258
H -3.958534 0.980308 -0.187505
C 0.017066 1.806692 0.004883
N 0.008355 3.030173 0.208669
H 0.181087 3.716958 -0.532868
O -0.107277 -2.075371 0.064801
H 0.376729 -2.468372 0.813560
