49

Ir -1.181731 -0.137156 0.033867
N -3.297226 -0.030997 0.001019
C -3.894072 1.188628 0.046269
C -5.289418 1.300053 0.008050
N -6.110874 0.240521 -0.076125
C -5.505168 -0.956744 -0.127536
C -4.114008 -1.111239 -0.091146
H -3.197674 2.042713 0.098609
H -5.754201 2.300529 0.048620
H -6.148831 -1.850614 -0.202637
H -3.633851 -2.099488 -0.136951
P 1.098549 0.039427 -0.011039
C 1.050698 1.031632 2.609434
C 1.754283 1.047678 1.387683
C 1.742898 0.894690 -1.517357
C 1.005649 1.991240 -2.016777
C 1.479575 2.693333 -3.134538
C 2.677501 2.310414 -3.761754
C 3.408747 1.219567 -3.265962
C 2.946128 0.510902 -2.144854
C 2.075773 -1.522688 0.062109
C 1.855526 -2.492699 -0.940242
C 2.565978 -3.700668 -0.920231
C 3.492535 -3.958558 0.104794
C 3.707722 -3.001304 1.108099
C 3.004965 -1.784893 1.087967
C 2.940917 1.800035 1.274411
C 3.423170 2.519236 2.378789
C 2.725180 2.493615 3.597738
C 1.538707 1.750493 3.711012
H 0.109365 0.461411 2.673861
H 0.066905 2.275227 -1.510931
H 0.902614 3.547209 -3.522301
H 3.041219 2.862298 -4.642433
H 4.347101 0.913927 -3.754217
H 3.522939 -0.344848 -1.762492
H 1.118476 -2.301050 -1.735056
H 2.388085 -4.449449 -1.707250
H 4.046506 -4.909864 0.121325
H 4.431071 -3.198002 1.914405
H 3.181659 -1.036098 1.874499
H 3.485389 1.829498 0.318024
H 4.348140 3.108781 2.284150
H 3.103891 3.062811 4.460808
H 0.982771 1.737756 4.661097
C -1.156794 -1.955315 0.105925
N -1.195766 -3.183434 0.051187
H -1.039732 -3.824330 0.833724
F -1.242075 1.894897 0.004342
