44

Ir 0.098192 -0.034563 -0.049975
P -2.257703 -0.079807 -0.017897
C -2.999714 0.645754 1.525939
C -3.072149 -1.748790 -0.119924
C -2.824678 -2.498956 -1.432481
C -3.103468 0.885626 -1.366192
C -2.612685 2.330246 -1.488599
C -2.514169 -0.034725 2.808244
H -2.697258 1.714088 1.523368
H -4.107422 0.614918 1.434491
H -2.653309 -2.325952 0.731128
H -4.157308 -1.607500 0.084835
H -2.894902 0.330236 -2.304539
H -4.202031 0.834212 -1.196558
H -1.733792 -2.594774 -1.601008
H -3.277875 -3.510928 -1.390898
H -3.275417 -1.975052 -2.300207
H -2.813125 2.920938 -0.571875
H -1.517178 2.355074 -1.655608
H -3.110187 2.846241 -2.335126
H -2.848321 -1.090532 2.869659
H -1.405291 -0.035100 2.848411
H -2.899889 0.487481 3.708037
C 2.150100 -0.093011 -0.066324
C 4.326569 -0.829434 0.418328
C 4.408509 0.502005 -0.344671
H 4.638328 -0.726602 1.484580
H 4.827982 0.380210 -1.371309
C 2.645771 2.114912 -1.131796
H 3.135125 2.135963 -2.131947
H 1.549117 2.134199 -1.267485
H 2.956029 3.020474 -0.567861
C 2.385449 -2.377696 0.909108
H 2.363576 -2.338275 2.022020
H 1.370325 -2.544588 0.500864
H 3.037219 -3.221822 0.601344
N 2.899771 -1.149079 0.338394
N 3.002243 0.906455 -0.423420
H 5.021368 1.267932 0.175782
H 4.945019 -1.633400 -0.033206
C 0.076643 1.579026 0.787422
N 0.045687 2.720091 1.260869
H 0.050189 2.911941 2.267613
F 0.130308 -1.853656 -0.959244
