27

Ir 0.001061 -0.407377 0.054310
P 2.297023 -0.422146 0.005811
C 5.426243 -0.587189 -0.077274
C 4.687118 -1.766157 -0.282502
C 3.288143 -1.824188 -0.263245
C 3.438785 0.866808 0.228636
C 4.821731 0.660082 0.166760
H 6.524973 -0.642135 -0.109634
H 5.240407 -2.701540 -0.471239
H 2.771149 -2.781240 -0.435120
H 3.024416 1.869987 0.414770
H 5.476796 1.534392 0.319134
P -2.295250 -0.421938 0.004846
C -5.424476 -0.589069 -0.077012
C -4.820775 0.656859 0.175662
C -3.437965 0.864380 0.237964
C -3.285499 -1.822877 -0.273361
C -4.684524 -1.765891 -0.291382
H -6.523188 -0.644632 -0.108925
H -5.476450 1.529477 0.334993
H -3.024425 1.866611 0.430839
H -2.767803 -2.778214 -0.452474
H -5.237165 -2.700318 -0.486661
C -0.001146 -2.248959 0.196510
N -0.005645 -3.469285 0.199231
H -0.007645 -4.116908 0.990500
I -0.002182 2.324830 -0.086925
