53

Ir 1.238666 -0.036527 0.002648
P -1.038580 -0.041150 -0.009649
C -1.308911 2.278940 -1.563614
C -1.780030 1.612271 -0.409799
C -1.838365 -0.511963 1.588486
C -1.069593 -0.444860 2.766789
C -1.649236 -0.768586 4.002851
C -2.994226 -1.167125 4.068770
C -3.761393 -1.245901 2.894012
C -3.186206 -0.923062 1.655439
C -1.895017 -1.174444 -1.214356
C -1.759354 -2.571782 -1.045550
C -2.392802 -3.452985 -1.932691
C -3.167381 -2.962265 -2.996754
C -3.310332 -1.577444 -3.165585
C -2.681249 -0.687484 -2.279169
C -2.750919 2.238873 0.394095
C -3.247718 3.507511 0.047416
C -2.789274 4.157025 -1.108687
C -1.818195 3.537470 -1.916041
H -0.526352 1.803745 -2.176918
H -0.009145 -0.154472 2.686290
H -1.041640 -0.721802 4.919750
H -3.445541 -1.428333 5.038694
H -4.813053 -1.568728 2.941084
H -3.784526 -0.999300 0.733960
H -1.156069 -2.976777 -0.218829
H -2.273053 -4.537855 -1.788846
H -3.660046 -3.659374 -3.692221
H -3.920440 -1.179040 -3.991193
H -2.817013 0.394189 -2.420704
H -3.118967 1.737744 1.301604
H -4.002378 3.988815 0.688635
H -3.185508 5.147469 -1.381348
H -1.450905 4.039933 -2.824550
N 3.358740 -0.158124 -0.030363
C 5.551335 0.258403 0.264516
C 4.275393 0.697368 0.556517
N 5.384230 -0.874813 -0.510113
C 4.053920 -1.100169 -0.674714
H 6.127919 -1.456380 -0.896452
H 6.537270 0.645521 0.537833
H 3.952139 1.564102 1.140779
H 3.586675 -1.938627 -1.211302
C 1.294873 1.841736 0.114785
N 1.350535 3.028777 0.282358
C 1.173988 4.420153 0.155955
H 1.267592 4.927729 1.139875
H 0.164577 4.643511 -0.254118
H 1.932178 4.861913 -0.527236
N 1.211828 -2.151725 0.026069
O 0.673906 -2.732979 0.988359
O 1.701658 -2.814898 -0.912817
