62

Ir -0.933319 -0.225318 0.007835
P -3.279414 -0.193958 0.043424
C -4.118003 0.340369 -1.527712
C -3.938904 0.981022 1.318841
C -3.420982 0.700315 2.731370
C -4.150727 -1.786578 0.454799
C -4.145330 -2.852075 -0.644866
C -3.678056 1.695026 -2.085978
H -3.903872 -0.463369 -2.262736
H -5.213523 0.314199 -1.332129
H -3.619975 1.989504 0.986081
H -5.049304 0.947147 1.267604
H -3.650814 -2.169397 1.368904
H -5.191898 -1.522046 0.742530
H -2.312595 0.730768 2.749635
H -3.800951 1.458987 3.445289
H -3.738663 -0.295464 3.103090
H -4.716219 -2.528659 -1.538099
H -3.118032 -3.109816 -0.966889
H -4.616901 -3.785016 -0.274742
H -3.881002 2.528749 -1.384486
H -2.591363 1.703014 -2.296902
H -4.219857 1.913711 -3.028617
P 1.422968 -0.070856 0.002555
C 1.902314 2.680485 0.216663
C 2.090310 1.537705 -0.591489
C 2.250313 -1.323295 -1.073596
C 1.573206 -1.734703 -2.241385
C 2.174880 -2.645892 -3.122349
C 3.449229 -3.163108 -2.838457
C 4.121666 -2.764936 -1.671479
C 3.528344 -1.846276 -0.791853
C 2.208762 -0.285338 1.659714
C 1.538807 -1.055072 2.633240
C 2.125188 -1.269493 3.889782
C 3.378488 -0.711021 4.188721
C 4.045691 0.065528 3.227074
C 3.465844 0.279401 1.966975
C 2.680489 1.676249 -1.862919
C 3.075861 2.944373 -2.319197
C 2.876043 4.078874 -1.517733
C 2.289237 3.944295 -0.248285
H 1.439208 2.580978 1.209494
H 0.563233 -1.339825 -2.440505
H 1.639364 -2.961122 -4.030992
H 3.917281 -3.885385 -3.524989
H 5.116781 -3.175149 -1.440237
H 4.060195 -1.543712 0.122579
H 0.545850 -1.469864 2.399802
H 1.593731 -1.870584 4.643436
H 3.834121 -0.874385 5.177567
H 5.024517 0.512625 3.459655
H 3.987215 0.899016 1.221151
H 2.830864 0.792912 -2.501510
H 3.539375 3.043777 -3.312833
H 3.174583 5.073072 -1.884058
H 2.113306 4.830191 0.379814
C -0.839220 -2.055482 0.068488
O -0.779440 -3.229153 0.126332
N -1.065982 1.804029 -0.016030
C -1.170907 3.004255 -0.061189
O -1.277534 4.199265 -0.098924
