50

Ir -1.159285 0.029076 -0.010854
N -3.277303 0.055396 0.043198
C -3.967686 1.070306 0.624436
C -5.369190 1.060152 0.652148
N -6.105495 0.071560 0.122036
C -5.410718 -0.924445 -0.452436
C -4.011875 -0.948758 -0.501453
H -3.371582 1.891734 1.048091
H -5.907677 1.896130 1.131393
H -5.985058 -1.752330 -0.903336
H -3.456132 -1.774428 -0.967836
P 1.121325 -0.019359 0.021886
C 1.096243 -0.695612 2.770538
C 1.884124 -0.225718 1.700765
C 2.036219 1.460046 -0.610792
C 2.062434 2.629170 0.182950
C 2.704363 3.785192 -0.283835
C 3.318391 3.790635 -1.547856
C 3.288008 2.634370 -2.342319
C 2.650219 1.472043 -1.877971
C 1.827462 -1.404438 -0.988383
C 1.126901 -1.765347 -2.159538
C 1.623145 -2.774408 -2.998261
C 2.812583 -3.444097 -2.668068
C 3.503953 -3.100466 -1.495302
C 3.017364 -2.083298 -0.658854
C 3.245257 0.077013 1.929494
C 3.809192 -0.110902 3.200573
C 3.020920 -0.594696 4.257866
C 1.664098 -0.881983 4.040786
H 0.025926 -0.886949 2.594793
H 1.574821 2.632352 1.170005
H 2.719518 4.690133 0.342708
H 3.819629 4.699768 -1.913952
H 3.765827 2.632279 -3.334054
H 2.632578 0.569192 -2.506417
H 0.176847 -1.255258 -2.389346
H 1.069136 -3.046678 -3.909769
H 3.197046 -4.242681 -3.321298
H 4.429975 -3.630845 -1.224340
H 3.564341 -1.830854 0.261209
H 3.865684 0.477641 1.112981
H 4.870616 0.129554 3.367046
H 3.463791 -0.736364 5.255858
H 1.036985 -1.243998 4.870199
C -1.149889 -1.780529 0.416831
N -1.196088 -3.003557 0.512193
H -1.147412 -3.539858 1.384460
S -1.400887 2.271439 -0.780590
H -0.122536 2.700761 -0.961376
