32

Ir -0.029681 -0.139287 0.003635
P -2.282093 -0.339311 0.019346
C -2.941274 -1.306240 1.445208
C -2.976604 -1.242980 -1.431147
C -3.293073 1.206263 0.065003
H -2.453516 -2.300482 1.431105
H -4.043027 -1.419920 1.383513
H -2.666626 -0.795369 2.388083
H -2.489187 -2.236630 -1.472922
H -2.724748 -0.691329 -2.357302
H -4.076611 -1.359355 -1.347632
H -3.024380 1.788428 0.967976
H -4.377415 0.975842 0.081727
H -3.060243 1.817697 -0.828647
N 2.086025 -0.193299 0.001735
C 4.391089 0.389213 0.055647
O 4.174107 -1.050028 -0.024600
C 2.849319 -1.240360 -0.042803
C 2.966342 0.991029 0.060067
H 2.759411 1.642600 -0.812539
H 2.735155 1.574576 0.973383
H 5.002908 0.688463 -0.818703
H 4.966375 0.592955 0.981077
H 2.477481 -2.275816 -0.093583
C -0.107924 1.764709 0.043524
N -0.189053 2.962211 0.096949
C -0.446172 4.322845 -0.152920
H 0.103001 4.973320 0.561110
H -1.530339 4.546351 -0.043229
H -0.141326 4.613903 -1.182947
C -0.020635 -2.178896 -0.065268
N -0.019737 -3.362302 -0.105485
