28

Ir -0.014099 -0.253105 -0.034540
N 2.040799 -0.271513 -0.056264
C 4.190019 -0.899590 -0.333260
C 2.877508 -1.314499 -0.429277
N 4.135745 0.408575 0.104456
C 2.831759 0.762382 0.265475
H 4.931392 1.022884 0.275913
H 5.132696 -1.414010 -0.540750
H 2.472368 -2.280451 -0.743671
H 2.486006 1.748906 0.588501
N -2.062891 -0.098907 -0.053978
C -4.257066 -0.545296 -0.330725
C -2.984050 -1.069126 -0.425214
N -4.093339 0.755184 0.102855
C -2.764177 0.998739 0.263698
H -4.834836 1.434691 0.270887
H -5.239706 -0.979471 -0.536331
H -2.661201 -2.067451 -0.733681
H -2.335703 1.953792 0.582057
C -0.091132 -2.094699 -0.011521
N -0.141810 -3.311391 -0.070619
C -0.188075 -4.494882 0.723892
H 0.696363 -5.136654 0.521627
H -1.085562 -5.099896 0.472789
H -0.212886 -4.271737 1.813720
N 0.071428 1.792325 -0.010462
C 0.135465 2.990945 0.039404
S 0.224106 4.603421 0.125109
