39

Ir 0.003391 -0.079688 0.002048
C -2.054552 -0.131598 0.013482
C -4.223381 -0.358999 0.690592
C -4.236792 -0.145052 -0.663250
H -5.042950 -0.522313 1.397160
H -5.070269 -0.077788 -1.369115
C -2.467607 0.227526 -2.418570
H -1.363337 0.130980 -2.417506
H -2.912256 -0.520024 -3.105284
H -2.745357 1.248435 -2.751634
C -2.421915 -0.555122 2.443866
H -2.276739 -1.635351 2.643563
H -1.435887 -0.061207 2.538785
H -3.147104 -0.122446 3.160539
N -2.892420 -0.341154 1.083301
N -2.912006 -0.012093 -1.055928
C 2.047439 -0.180423 -0.007436
C 4.255303 0.077478 0.533562
C 4.195690 -0.674940 -0.610381
H 5.112239 0.416520 1.123487
H 4.991816 -1.117455 -1.217043
C 2.332672 -1.524154 -2.088930
H 1.506117 -2.189878 -1.770113
H 1.930696 -0.799673 -2.825113
H 3.148239 -2.112798 -2.549916
C 2.547451 1.144435 2.045293
H 2.855338 2.204776 1.933452
H 1.442130 1.085253 2.108607
H 3.001442 0.726539 2.966262
N 2.943074 0.365709 0.885099
N 2.851197 -0.823161 -0.921812
C 0.021155 1.737743 -0.385703
N 0.036306 2.912754 -0.721083
C 0.031198 4.211677 -0.125965
H -0.858140 4.791107 -0.456204
H 0.924094 4.792226 -0.444674
H 0.021780 4.175344 0.987720
S -0.117321 -2.451335 0.481218
H 1.191124 -2.740753 0.743456
