32

Ir 0.033035 0.068761 -0.027356
C -1.967459 -0.005377 -0.014989
C -4.154069 0.283439 0.559910
C -4.116775 -0.573651 -0.507829
H -4.998347 0.679971 1.131671
H -4.922521 -1.079829 -1.047797
C -2.293181 -1.596690 -1.913688
H -1.319077 -1.200807 -2.257737
H -2.127131 -2.624194 -1.534301
H -3.022336 -1.602931 -2.746576
C -2.424775 1.519337 1.912250
H -1.364398 1.303419 2.145066
H -2.512919 2.577805 1.591614
H -3.050277 1.351743 2.810109
N -2.837497 0.616515 0.849285
N -2.781113 -0.732307 -0.848791
N 2.177623 -0.015143 0.003030
C 5.000000 -0.125286 0.066986
C 4.331967 0.800571 -0.748250
C 2.934564 0.825512 -0.751638
C 2.828629 -0.915105 0.787494
C 4.223959 -0.995197 0.845567
H 6.099409 -0.166941 0.093557
H 4.882655 1.508755 -1.384267
H 2.382158 1.542083 -1.375574
H 2.180552 -1.596688 1.358121
H 4.688407 -1.744906 1.502665
C -0.008764 1.900614 -0.426426
O -0.085769 3.049636 -0.657440
C -0.027656 -1.919589 0.450082
C -0.086826 -3.123593 0.747953
H -0.124462 -4.172563 1.010193
