28

Ir 0.101168 -0.126776 0.018274
N -1.931512 -0.160690 0.044278
C -2.633250 -1.143721 -0.593325
C -4.031749 -1.159681 -0.572694
N -4.777457 -0.235564 0.056393
C -4.077836 0.724259 0.684719
C -2.681181 0.778512 0.692514
H -2.036912 -1.922212 -1.088792
H -4.564870 -1.968694 -1.101748
H -4.648790 1.501877 1.221865
H -2.134338 1.574195 1.215505
N 2.152155 -0.196404 0.000241
C 4.449789 0.274034 0.355484
O 4.230702 -1.022984 -0.275779
C 2.908357 -1.180901 -0.383429
C 3.042086 0.901945 0.436774
H 2.904548 1.769541 -0.240393
H 2.758388 1.226039 1.456434
H 5.165175 0.840995 -0.271251
H 4.909200 0.088891 1.347947
H 2.519756 -2.139133 -0.758834
C 0.105898 1.713484 -0.023123
N 0.092557 2.928020 0.036238
C 0.033300 4.136471 -0.716682
H 0.894871 4.792804 -0.469913
H -0.886819 4.705845 -0.465399
H 0.037428 3.949661 -1.813259
Cl 0.117891 -2.534598 0.089734
