35

Ir 0.047522 -0.125570 0.013791
C -1.948090 -0.217247 0.037299
C -4.131393 -0.016989 0.673381
C -4.101833 -0.761155 -0.475896
H -4.970277 0.303168 1.298537
H -4.910506 -1.223279 -1.050010
C -2.294707 -1.629723 -1.999531
H -1.350733 -1.172336 -2.350774
H -2.075586 -2.675660 -1.706641
H -3.057650 -1.600964 -2.800987
C -2.395594 1.071292 2.134827
H -1.306108 0.917497 2.259460
H -2.596054 2.153394 1.992240
H -2.930355 0.714488 3.036720
N -2.814010 0.303810 0.973758
N -2.770760 -0.867886 -0.852586
N 2.191696 -0.176642 0.039647
C 5.022833 -0.244247 0.108131
C 4.336863 0.881119 -0.372427
C 2.939726 0.876816 -0.388935
C 2.864154 -1.269048 0.499188
C 4.260071 -1.334548 0.549420
H 6.122614 -0.270506 0.135350
H 4.874538 1.768780 -0.736744
H 2.376510 1.746621 -0.753547
H 2.236513 -2.115951 0.812973
H 4.734775 -2.249376 0.933075
C -0.031003 1.768890 -0.166781
N -0.130925 2.965796 -0.248627
C -0.312701 4.261212 -0.774074
H -1.292400 4.682269 -0.459743
H -0.282478 4.261397 -1.886726
H 0.475978 4.953329 -0.408560
C 0.008534 -2.165461 0.146348
N -0.048737 -3.346433 0.201773
