40

Ir -0.040433 0.176288 -0.107657
C -2.090093 0.002845 -0.050300
C -4.278746 0.140766 0.589573
C -4.208132 -0.740101 -0.458690
H -5.133608 0.483891 1.180141
H -4.990046 -1.319346 -0.959377
C -2.338749 -1.664143 -1.880656
H -1.572990 -1.099757 -2.446240
H -1.844685 -2.545415 -1.424416
H -3.158062 -1.978978 -2.554363
C -2.598756 1.511553 1.867948
H -2.887598 1.117495 2.862942
H -1.496133 1.610661 1.818324
H -3.075753 2.501034 1.711828
N -2.982947 0.581739 0.820940
N -2.875681 -0.802912 -0.837058
C 2.010600 0.096125 -0.077531
C 4.247437 0.359584 0.602393
C 4.168027 -0.737883 -0.471714
H 4.756523 1.281691 0.232134
H 4.325415 -1.755764 -0.042810
C 2.276426 -1.469703 -1.981188
H 2.219114 -2.526439 -1.636943
H 1.249353 -1.132180 -2.222998
H 2.919712 -1.408210 -2.884608
C 2.422876 1.538557 1.904112
H 2.823952 2.564434 1.731146
H 1.314887 1.569503 1.896779
H 2.774131 1.189163 2.899112
N 2.833244 0.628299 0.864872
N 2.789379 -0.602854 -0.945232
H 4.898125 -0.599415 -1.296212
H 4.774834 0.031762 1.522549
C -0.086808 1.898172 -0.751545
N -0.116055 3.014581 -1.236683
C -0.147838 4.402547 -0.926674
H -1.054462 4.882728 -1.355241
H 0.728385 4.926357 -1.367203
H -0.144760 4.595555 0.170804
Br 0.054112 -2.220709 0.845485
