30

Ir 0.136452 -0.319391 -0.000012
P -2.125829 -0.186512 0.000026
C -2.834654 0.701056 -1.449846
C -2.834603 0.700955 1.450000
C -3.051014 -1.780399 -0.000022
H -2.386344 1.712609 -1.483556
H -3.939075 0.768224 -1.373408
H -2.553485 0.159656 -2.373630
H -2.385822 1.712286 1.484084
H -2.553919 0.159099 2.373666
H -3.938975 0.768730 1.373356
H -2.775218 -2.368409 -0.896397
H -4.143862 -1.594921 0.000090
H -2.775052 -2.368550 0.896212
N 2.411391 -0.264573 0.000057
C 2.994172 -1.627098 0.000060
C 2.874083 0.451337 -1.214691
C 2.874006 0.451406 1.214762
H 2.516180 -0.086512 -2.112442
H 3.987748 0.502507 -1.232014
H 2.449928 1.472152 -1.220341
H 2.516305 -0.086537 2.112541
H 2.449690 1.472156 1.220441
H 3.987669 0.502797 1.232057
H 2.660190 -2.178118 -0.898009
H 2.660163 -2.178143 0.898106
H 4.107394 -1.571707 0.000096
C 0.062801 -2.134016 -0.000038
O -0.021232 -3.308767 -0.000088
Br 0.122243 2.238175 -0.000039
