37

Ir 0.174615 -0.023509 0.044132
N 2.316272 0.028669 0.003314
C 2.959190 1.223836 -0.027349
C 4.357155 1.281463 -0.093274
N 5.139860 0.190208 -0.123918
C 4.490494 -0.984395 -0.088899
C 3.095017 -1.082320 -0.027392
H 2.288323 2.102553 0.009977
H 4.858161 2.264839 -0.121031
H 5.099136 -1.905230 -0.110233
H 2.586709 -2.056640 -0.001676
P -2.100899 0.145304 -0.029741
C -3.084044 -1.430697 -0.100815
C -2.752438 1.099081 -1.489311
C -2.340779 2.572096 -1.541738
C -2.840997 1.020814 1.436699
C -2.548221 0.325429 2.768488
C -2.971365 -2.208166 -1.414993
H -2.725753 -2.050467 0.747083
H -4.141538 -1.162467 0.114701
H -2.360840 0.558397 -2.375972
H -3.858651 0.977350 -1.495301
H -2.410560 2.044731 1.431928
H -3.932646 1.134110 1.255674
H -1.241758 2.672434 -1.427376
H -2.647286 3.026796 -2.505520
H -2.823753 3.161585 -0.734856
H -3.023054 -0.675118 2.824546
H -1.455944 0.184981 2.902509
H -2.932293 0.922947 3.620002
H -3.395536 -1.643386 -2.269121
H -1.918692 -2.454439 -1.654063
H -3.527443 -3.164700 -1.342146
C 0.099530 -1.848007 0.050359
O 0.031156 -3.025788 0.098081
O 0.344526 2.010392 0.100155
H -0.348077 2.468592 0.606560
