33

Ir -0.304348 -0.040978 -0.018223
N 1.715551 -0.055233 0.014118
C 2.412604 -0.951345 0.770264
C 3.811555 -0.968443 0.762373
N 4.558076 -0.133402 0.021731
C 3.863079 0.739497 -0.726467
C 2.466351 0.794956 -0.743120
H 1.830962 -1.640679 1.394018
H 4.341661 -1.701331 1.394816
H 4.437237 1.439221 -1.358714
H 1.919620 1.513719 -1.367400
N -2.497215 -0.137483 -0.066930
C -2.938322 -1.101478 -1.115410
C -2.967820 -0.606284 1.266499
C -3.125864 1.173128 -0.366660
H -2.491688 -1.583973 1.469611
H -4.078083 -0.704647 1.267303
H -2.659333 0.126358 2.035107
H -2.759579 1.547533 -1.340145
H -2.863091 1.902952 0.419746
H -4.233359 1.064422 -0.404601
H -2.569367 -2.109318 -0.861493
H -2.527879 -0.787625 -2.093066
H -4.050615 -1.119061 -1.167265
C -0.288462 1.836114 0.033130
N -0.185978 3.033995 0.031463
C -0.171420 4.380712 0.451173
H 0.741099 4.898088 0.086358
H -0.193504 4.462433 1.560327
H -1.048788 4.929422 0.046006
N -0.203731 -2.167128 -0.060115
O -1.025115 -2.890627 0.550674
O 0.720411 -2.690447 -0.706923
