32

Ir 0.310441 -0.084297 0.010978
P 2.638385 -0.271481 0.039303
C 3.314881 -1.144734 -1.431370
C 3.249855 -1.267990 1.458979
C 3.617294 1.287242 0.127167
H 2.777117 -2.110444 -1.503293
H 4.407664 -1.309762 -1.339253
H 3.095923 -0.551232 -2.339861
H 2.713015 -2.236229 1.422979
H 2.987014 -0.753998 2.403531
H 4.346298 -1.425117 1.403340
H 3.391449 1.906992 -0.762417
H 4.705216 1.076919 0.164333
H 3.315811 1.853967 1.029440
P -1.971353 -0.108642 0.013339
C -5.110521 -0.192737 0.029212
C -4.403032 -1.403303 -0.100327
C -3.007368 -1.497832 -0.120780
C -3.080142 1.223076 0.159757
C -4.470715 1.053966 0.153531
H -6.210769 -0.222968 0.035114
H -4.984292 -2.336821 -0.191024
H -2.498589 -2.469639 -0.221151
H -2.647435 2.230345 0.266903
H -5.101800 1.953464 0.253928
C 0.361388 1.764226 0.094572
N 0.407063 2.966898 0.216478
C 0.475038 4.256186 -0.374264
H 1.485196 4.697631 -0.232531
H -0.251479 4.945832 0.104537
H 0.259568 4.225796 -1.465364
Cl 0.339477 -2.501109 -0.126961
