27

Ir -0.201488 0.102922 0.000085
As 2.178070 0.000313 -0.000085
C 3.176314 1.683729 -0.000042
C 2.930450 -0.967565 -1.524250
C 2.930554 -0.967801 1.523879
H 2.896265 2.266062 -0.898368
H 4.266649 1.491215 0.000411
H 2.895572 2.266453 0.897812
H 2.690134 -0.416020 -2.452632
H 2.430613 -1.954361 -1.548913
H 4.026893 -1.082035 -1.417713
H 2.690895 -0.416059 2.452315
H 4.026898 -1.082852 1.416935
H 2.430243 -1.954353 1.548769
N -2.301476 -0.043477 0.000082
C -4.621391 0.469809 -0.000536
O -4.357870 -0.965649 0.000206
C -3.029569 -1.115187 0.000472
C -3.216562 1.116448 -0.000555
H -3.016962 1.741262 0.892857
H -3.016628 1.740558 -0.894379
H -5.222608 0.702924 0.900710
H -5.222247 0.702051 -0.902250
H -2.612224 -2.134535 0.000945
C -0.192837 1.918086 0.000260
O -0.159745 3.096245 0.000379
Cl -0.072691 -2.315949 -0.000050
