26

Ir 0.003502 -0.125954 -0.031980
N -2.050864 -0.204940 -0.043641
C -4.172442 -0.914135 0.225192
C -2.847347 -1.243568 0.421357
N -4.169775 0.336919 -0.362077
C -2.877291 0.738069 -0.514680
H -4.988835 0.872678 -0.646950
H -5.095617 -1.456519 0.448982
H -2.384655 -2.149463 0.826261
H -2.565270 1.693894 -0.946585
N 2.061875 -0.140166 -0.047760
C 4.216855 0.465885 -0.328404
C 2.907560 0.883394 -0.453030
N 4.150185 -0.825315 0.158386
C 2.842582 -1.164764 0.321455
H 4.940851 -1.435683 0.362216
H 5.164575 0.967439 -0.544535
H 2.509655 1.839991 -0.803757
H 2.458993 -2.135849 0.656008
C -0.035913 1.696230 -0.062541
N -0.080456 2.918872 -0.154228
C -0.077071 4.050955 0.724013
H -0.963878 4.693971 0.536168
H 0.817363 4.684931 0.539955
H -0.079940 3.760178 1.798148
Cl 0.046985 -2.547476 0.081270
