31

Ir -0.000002 -0.157240 0.000027
As -2.409827 0.074953 -0.000018
C -3.520967 -1.537938 0.000258
C -3.106440 1.092986 -1.518664
C -3.106515 1.093412 1.518311
H -3.280496 -2.136953 -0.898737
H -4.596516 -1.274278 0.000437
H -3.280155 -2.136836 0.899238
H -2.869214 0.553040 -2.454621
H -2.587781 2.070752 -1.524535
H -4.201029 1.234891 -1.426528
H -2.869587 0.553565 2.454402
H -4.201068 1.235443 1.425921
H -2.587702 2.071093 1.524137
As 2.409858 0.074896 -0.000022
C 3.106539 1.093199 1.518425
C 3.106417 1.093211 -1.518503
C 3.520992 -1.537990 0.000006
H 2.587591 2.070809 1.524364
H 4.201067 1.235370 1.425994
H 2.869705 0.553214 2.454460
H 2.587466 2.070823 -1.524359
H 2.869544 0.553287 -2.454560
H 4.200944 1.235462 -1.426148
H 3.280394 -2.136873 0.899056
H 4.596547 -1.274347 -0.000057
H 3.280325 -2.137020 -0.898925
C -0.000054 -2.031122 0.000002
O -0.000153 -3.202094 -0.000033
C 0.000051 1.889335 0.000060
N 0.000031 3.072461 0.000079
