48

Ir -1.155512 -0.316530 -0.043444
P 1.119729 -0.055793 -0.011098
C 2.071279 -2.613848 -0.687045
C 2.087989 -1.603390 0.298902
C 1.722871 1.085691 1.310634
C 1.030371 1.091086 2.539754
C 1.480183 1.893407 3.597997
C 2.613962 2.706631 3.433622
C 3.297124 2.713569 2.207256
C 2.856893 1.904459 1.147535
C 1.893130 0.575238 -1.572007
C 1.141602 1.391954 -2.441564
C 1.727292 1.897825 -3.612286
C 3.060947 1.593033 -3.928381
C 3.813255 0.778273 -3.066812
C 3.234042 0.269397 -1.894021
C 2.806165 -1.815317 1.491634
C 3.494808 -3.023004 1.695264
C 3.476042 -4.023075 0.711669
C 2.763260 -3.814575 -0.481419
H 1.511890 -2.458381 -1.622847
H 0.124733 0.472605 2.646271
H 0.932859 1.893670 4.553124
H 2.960636 3.344277 4.261550
H 4.178947 3.358142 2.069417
H 3.393750 1.921662 0.187462
H 0.099213 1.636941 -2.185728
H 1.131686 2.534746 -4.284279
H 3.515313 1.988049 -4.850278
H 4.858692 0.532209 -3.309166
H 3.827920 -0.376501 -1.229473
H 2.831121 -1.033848 2.265476
H 4.052228 -3.178676 2.631808
H 4.016927 -4.968136 0.873629
H 2.741412 -4.595330 -1.257024
N -3.275225 -0.418298 -0.066853
C -5.528693 -1.091779 0.258907
O -5.412020 0.159702 -0.483833
C -4.107200 0.426816 -0.586288
C -4.065355 -1.521330 0.516988
H -3.792092 -2.475438 0.022441
H -3.818242 -1.620999 1.592485
H -6.103607 -1.803136 -0.366187
H -6.102290 -0.880674 1.183518
H -3.809113 1.363197 -1.081092
C -1.036409 -2.135945 -0.085784
O -1.009720 -3.311056 -0.108504
Br -1.402125 2.216673 0.042569
