27

Ir 0.197149 0.091965 -0.000031
As -2.159650 -0.162745 0.000022
C -2.770251 -1.236667 1.516843
C -2.770176 -1.237602 -1.516145
C -3.346671 1.390171 -0.000461
H -2.118876 -2.131441 1.530560
H -3.834084 -1.525228 1.408856
H -2.618667 -0.664704 2.451496
H -2.118508 -2.132165 -1.529477
H -2.618911 -0.666066 -2.451112
H -3.833909 -1.526405 -1.407849
H -3.132790 2.000433 0.897603
H -4.408293 1.075829 -0.000232
H -3.132974 1.999755 -0.899028
N 2.270859 -0.120024 0.000005
C 4.624504 0.150518 0.000495
O 4.216639 -1.251950 -0.000237
C 2.879184 -1.263768 -0.000204
C 3.293206 0.941045 -0.000074
H 3.157755 1.582160 -0.894186
H 3.157386 1.582780 0.893522
H 5.246975 0.320631 -0.900438
H 5.245728 0.320009 0.902422
H 2.340690 -2.224245 -0.000332
C 0.163320 1.903173 -0.000057
O 0.130549 3.083131 -0.000090
F 0.182695 -1.934731 0.000004
