39

Ir 0.039560 -0.418268 -0.097162
C 2.103397 -0.295892 -0.061892
C 4.306707 -0.655327 0.421556
C 4.232144 0.469768 -0.356601
H 5.168150 -1.164086 0.864722
H 5.015980 1.139900 -0.722462
C 2.387350 1.779629 -1.442798
H 1.392535 1.498001 -1.833043
H 2.276275 2.697525 -0.830918
H 3.080453 1.969260 -2.285026
C 2.637461 -2.283517 1.357065
H 1.565189 -2.195682 1.615249
H 2.791663 -3.206743 0.761362
H 3.243827 -2.337531 2.281973
N 3.004453 -1.103297 0.592541
N 2.890159 0.669052 -0.644256
C -2.019521 -0.339985 -0.078851
C -4.273589 -0.787687 0.427784
C -4.185577 0.519855 -0.375407
H -4.737383 -1.616921 -0.157687
H -4.413774 1.416506 0.247080
C -2.276383 1.597441 -1.629725
H -2.277068 2.579911 -1.107182
H -1.234919 1.352078 -1.910113
H -2.897415 1.674387 -2.547143
C -2.480552 -2.195150 1.520525
H -2.777274 -3.167804 1.063828
H -1.379962 -2.168980 1.638476
H -2.958706 -2.119912 2.520712
N -2.862687 -1.078380 0.692240
N -2.778512 0.536401 -0.784244
H -4.860902 0.539878 -1.255817
H -4.846830 -0.682549 1.372364
C 0.059536 -2.122649 -0.793939
N 0.073006 -3.207565 -1.368980
H 0.064057 -4.135245 -0.939037
N 0.005729 1.501016 0.630038
C -0.013854 2.685715 0.811433
S -0.027983 4.292553 1.005493
