44

Ir 0.091776 0.132845 0.081627
P -2.243282 -0.122094 -0.098216
C -3.025268 -1.319662 1.093867
C -2.764777 -0.776050 -1.757102
C -2.288146 0.087559 -2.927224
C -3.324283 1.385655 0.087691
C -3.402927 1.979813 1.496026
C -2.371783 -2.702059 1.146998
H -2.966506 -0.831189 2.089110
H -4.104864 -1.387008 0.831958
H -2.314212 -1.787518 -1.827881
H -3.870566 -0.893202 -1.749725
H -2.914812 2.131690 -0.625298
H -4.336980 1.110680 -0.281077
H -1.184340 0.192953 -2.901981
H -2.567299 -0.375611 -3.895456
H -2.728169 1.105864 -2.905242
H -3.881557 1.283497 2.213548
H -2.402920 2.242176 1.891822
H -4.008780 2.908903 1.489179
H -2.389436 -3.216668 0.166284
H -1.307159 -2.625951 1.442450
H -2.894380 -3.348386 1.881598
C 2.145888 0.067534 0.086688
C 4.303745 -0.772872 0.427970
C 4.388494 0.482794 -0.456394
H 4.987896 -0.741757 1.300769
H 4.953037 0.317294 -1.397096
C 2.578033 1.823757 -1.622823
H 3.032868 1.677217 -2.625297
H 1.474517 1.795406 -1.715602
H 2.888430 2.821058 -1.236288
C 2.373542 -1.799509 1.707568
H 2.973324 -1.864192 2.639307
H 1.324980 -1.542768 1.955102
H 2.378201 -2.787019 1.195501
N 2.899444 -0.759569 0.849735
N 2.975433 0.761224 -0.729151
H 4.856288 1.346316 0.072322
H 4.518801 -1.706543 -0.142070
C 0.039405 1.846266 0.834292
O 0.042328 2.935193 1.269131
C 0.230416 -1.703604 -0.824572
N 0.329902 -2.759109 -1.347568
