42

Ir 0.136517 0.062721 -0.024066
P -2.211511 -0.137187 -0.058102
C -2.895153 -1.350336 1.178614
C -2.774801 -0.834407 -1.681904
C -2.560655 0.116589 -2.861632
C -3.306298 1.349380 0.177822
C -3.274843 1.984630 1.570555
C -2.143679 -2.683148 1.226393
H -2.836746 -0.845154 2.165565
H -3.975275 -1.493426 0.952170
H -2.130623 -1.730941 -1.803449
H -3.835705 -1.154118 -1.589988
H -2.974518 2.082464 -0.586924
H -4.340058 1.043171 -0.097259
H -1.502833 0.448536 -2.902567
H -2.797638 -0.388458 -3.820672
H -3.199629 1.021632 -2.799126
H -3.640617 1.289266 2.352930
H -2.254499 2.308549 1.852133
H -3.928396 2.880564 1.600155
H -2.129609 -3.191034 0.242182
H -1.086168 -2.520033 1.513341
H -2.609932 -3.368089 1.964234
C 2.178805 -0.065983 -0.053195
C 4.294948 -0.840818 0.297345
C 4.400806 0.420220 -0.229293
H 5.065287 -1.557460 0.598176
H 5.281325 1.018762 -0.481892
C 2.765157 2.178893 -0.985543
H 1.780022 2.098802 -1.482326
H 2.687495 2.934672 -0.178289
H 3.536525 2.490928 -1.715289
C 2.385561 -2.347555 0.961769
H 2.253773 -2.240547 2.057697
H 1.401602 -2.525490 0.482123
H 3.072697 -3.190213 0.754114
N 2.940034 -1.123269 0.390990
N 3.106300 0.871392 -0.443615
C 0.162623 1.662586 0.857889
O 0.221356 2.713976 1.395348
O 0.057858 -1.730043 -1.041406
H 0.871479 -1.832705 -1.568498
