30

Ir 0.004050 -0.241190 0.000266
As 2.453376 -0.200100 -0.009816
C 3.394883 -1.908352 0.136493
C 3.260936 0.879836 1.407089
C 3.218915 0.599357 -1.621920
H 3.117243 -2.387484 1.094620
H 4.490701 -1.756010 0.094402
H 3.072565 -2.566597 -0.692613
H 2.908241 0.508843 2.387511
H 2.937860 1.930635 1.280114
H 4.365097 0.815776 1.349418
H 2.909857 0.003157 -2.500877
H 4.323646 0.632079 -1.550637
H 2.814055 1.624343 -1.721143
P -2.262035 -0.048216 -0.004022
C -5.371643 0.301188 -0.011063
C -4.564830 1.454711 -0.035748
C -3.165487 1.433383 -0.035532
C -3.471982 -1.292747 0.022234
C -4.842432 -1.002047 0.016388
H -6.465245 0.424181 -0.013407
H -5.064618 2.437911 -0.056590
H -2.581059 2.366085 -0.055643
H -3.127944 -2.338891 0.044334
H -5.548225 -1.849525 0.034486
C -0.062115 -2.078389 0.033296
O -0.075749 -3.251648 0.058226
N 0.172964 1.795555 -0.030755
C 0.685383 2.888253 0.033361
O 1.176322 3.980856 0.093964
