28

Ir 0.215445 0.004975 0.009379
N 2.377241 -0.221055 -0.006362
C 3.122716 1.046453 -0.189492
C 2.783989 -0.849398 1.278342
C 2.700915 -1.151205 -1.123466
H 2.539134 -0.164932 2.111374
H 3.878318 -1.062383 1.274312
H 2.207239 -1.785302 1.390026
H 2.418207 -0.677455 -2.081608
H 2.106741 -2.073173 -0.980043
H 3.791134 -1.381666 -1.126493
H 2.884806 1.739598 0.637786
H 2.819981 1.518601 -1.141672
H 4.219266 0.850657 -0.205064
N -1.799142 -0.105299 -0.017066
C -4.126246 0.281386 0.208514
O -3.829081 -1.049998 -0.305905
C -2.491890 -1.153027 -0.356414
C -2.751459 0.980776 0.295561
H -2.525755 1.395519 1.296839
H -2.618425 1.797861 -0.442594
H -4.620933 0.159248 1.194231
H -4.835867 0.766675 -0.489590
H -2.033364 -2.104734 -0.661228
C 0.227338 1.824825 -0.107640
O 0.198462 3.006010 -0.144081
O 0.201983 -2.039521 0.154804
H -0.229494 -2.287924 0.994542
