40

Ir 0.447604 -0.017679 -0.022884
P -1.801353 -0.114510 0.027800
C -2.579984 0.969217 1.321028
C -2.494971 -1.798116 0.396772
C -2.204988 -2.862656 -0.665135
C -2.708812 0.370510 -1.524628
C -2.351091 1.749938 -2.079941
C -2.078193 0.678193 2.737320
H -2.317706 2.008598 1.031590
H -3.684581 0.867955 1.242099
H -2.037784 -2.094537 1.363279
H -3.586265 -1.668558 0.572836
H -2.464159 -0.415628 -2.268750
H -3.797498 0.286016 -1.311008
H -1.109868 -2.961655 -0.794445
H -2.614284 -3.843474 -0.346850
H -2.668062 -2.617526 -1.642813
H -2.565463 2.561480 -1.355109
H -1.272279 1.800691 -2.328270
H -2.929711 1.963963 -3.001783
H -2.367928 -0.335805 3.080941
H -0.971420 0.742011 2.773044
H -2.494307 1.407631 3.461793
N 2.700148 -0.136467 -0.027244
C 3.362161 1.180894 -0.094582
C 3.087152 -0.837879 1.219487
C 3.078971 -0.958886 -1.200431
H 2.794988 -0.221671 2.090454
H 4.188231 -1.016135 1.243091
H 2.540383 -1.797823 1.257092
H 2.785887 -0.428990 -2.126289
H 2.524790 -1.913597 -1.142196
H 4.178835 -1.145060 -1.210642
H 3.049308 1.801743 0.765051
H 3.059278 1.700042 -1.022717
H 4.471176 1.064463 -0.084338
C 0.353313 1.795496 -0.026351
N 0.293811 3.020619 0.126316
H 0.253529 3.689660 -0.648757
F 0.650073 -2.029358 0.061448
