32

Ir 0.072497 0.092311 -0.012239
As -2.365772 -0.086302 0.052820
C -3.574686 1.343059 -0.528296
C -3.010731 -0.531483 1.846832
C -2.980987 -1.644592 -0.961021
H -3.387646 2.241595 0.090517
H -4.634007 1.035142 -0.431393
H -3.350722 1.591636 -1.583450
H -2.864491 0.337827 2.515412
H -2.369834 -1.365782 2.190671
H -4.076852 -0.831350 1.834768
H -2.825164 -1.464738 -2.041572
H -4.046052 -1.871608 -0.759315
H -2.332266 -2.479443 -0.633642
C 2.094694 -0.136260 0.044563
C 4.166137 -1.051492 -0.193693
C 4.331824 0.214489 0.304153
H 4.899416 -1.825306 -0.440247
H 5.237426 0.762518 0.581047
C 2.791174 2.087362 0.968791
H 2.676631 2.821019 0.146215
H 1.846995 2.058293 1.543072
H 3.623231 2.397500 1.628564
C 2.195305 -2.465417 -0.874912
H 1.202428 -2.583466 -0.397492
H 2.087627 -2.391916 -1.976149
H 2.840843 -3.329141 -0.626340
N 2.802197 -1.249824 -0.339655
N 3.061921 0.753994 0.449428
C 0.144927 1.752803 -0.727967
O 0.170110 2.839182 -1.190336
F -0.154999 -1.779576 0.782468
