29

Ir 0.289603 -0.305383 0.042794
N 2.485732 -0.283134 0.024819
C 3.079335 -1.636385 0.175596
C 2.950288 0.283149 -1.272406
C 2.981143 0.565808 1.143325
H 2.574368 -0.350115 -2.096957
H 4.063951 0.310954 -1.298612
H 2.539875 1.302407 -1.389242
H 2.632198 0.137910 2.101254
H 2.565846 1.584231 1.035322
H 4.094727 0.599928 1.131500
H 2.734487 -2.291451 -0.644079
H 2.760056 -2.075929 1.137619
H 4.190509 -1.568219 0.153484
N -1.750805 -0.226631 0.044028
C -4.565960 -0.056086 0.004859
C -3.804178 0.763016 0.850351
C -2.410923 0.653940 0.847819
C -2.491051 -1.023687 -0.775910
C -3.886177 -0.965114 -0.819376
H -5.664071 0.011425 -0.011116
H -4.278078 1.494588 1.520541
H -1.775832 1.284312 1.483988
H -1.922563 -1.722015 -1.404404
H -4.426268 -1.633658 -1.505185
C 0.199431 -2.120645 0.163180
N 0.063344 -3.342042 0.096552
H -0.002722 -3.981085 0.894015
Br 0.277565 2.245426 -0.213305
