51

Ir -1.278559 -0.140607 0.002371
P 0.984033 -0.161227 -0.002590
C 1.546012 2.094090 1.560731
C 1.783980 1.478770 0.311901
C 1.739267 -0.705975 -1.604058
C 0.973989 -0.543519 -2.777421
C 1.509643 -0.902034 -4.024260
C 2.807131 -1.432894 -4.107512
C 3.568518 -1.607450 -2.939473
C 3.038575 -1.246816 -1.690989
C 1.798405 -1.251512 1.253673
C 1.142506 -2.446829 1.621204
C 1.747915 -3.314725 2.543225
C 2.996262 -3.001774 3.106681
C 3.645498 -1.809865 2.746770
C 3.050740 -0.935152 1.823156
C 2.549754 2.155459 -0.655182
C 3.076336 3.428891 -0.375475
C 2.848613 4.030527 0.871481
C 2.082854 3.357880 1.841004
H 0.928446 1.575046 2.311054
H -0.051369 -0.147369 -2.684425
H 0.905156 -0.773667 -4.935542
H 3.224814 -1.720255 -5.085070
H 4.582102 -2.033527 -2.999609
H 3.636227 -1.395692 -0.778659
H 0.154668 -2.667879 1.177924
H 1.232995 -4.245431 2.828842
H 3.463088 -3.685390 3.833053
H 4.621190 -1.555028 3.189281
H 3.561528 0.001972 1.552836
H 2.734197 1.687916 -1.634099
H 3.671663 3.951145 -1.140440
H 3.266527 5.025446 1.090076
H 1.897135 3.825369 2.820549
N -3.389787 -0.303158 0.021255
C -5.607610 0.063854 0.002104
C -4.368141 0.670371 -0.054887
N -5.352371 -1.291506 0.114210
C -4.006750 -1.483110 0.122680
H -6.050993 -2.031782 0.179517
H -6.622539 0.471100 -0.028106
H -4.107661 1.729280 -0.149370
H -3.462555 -2.433347 0.195345
C -1.299956 1.687883 -0.108254
N -1.362527 2.890911 -0.282618
C -1.176222 4.156111 0.344074
H -1.890647 4.903796 -0.059699
H -0.149651 4.535535 0.148519
H -1.310537 4.103855 1.448000
F -1.388487 -2.178080 0.082150
