25

Ir 0.057177 0.180044 -0.021919
N 2.119353 0.089246 0.023604
C 4.284954 0.606682 0.367008
C 2.988617 1.053924 0.514543
N 4.182855 -0.639938 -0.219859
C 2.870317 -0.926427 -0.421552
H 4.957141 -1.256567 -0.465810
H 5.244964 1.062626 0.625433
H 2.622200 1.995171 0.934292
H 2.443219 -1.855161 -0.826951
N -1.993924 0.155131 -0.023022
C -4.255875 -0.507674 -0.266409
O -4.120216 0.783054 0.405276
C -2.807275 0.996416 0.537106
C -2.826259 -0.852817 -0.727184
H -2.669226 -0.737315 -1.819143
H -2.511093 -1.866618 -0.421405
H -4.988654 -0.388562 -1.087145
H -4.654324 -1.226920 0.478488
H -2.499267 1.887903 1.100945
C 0.080729 2.004033 -0.258189
O 0.068541 3.168047 -0.410631
N -0.043442 -1.943758 0.225037
O -0.882949 -2.387713 1.030343
O 0.658027 -2.731826 -0.442887
