54

Ir -1.243319 -0.248071 0.019494
P 1.098622 -0.024790 0.016252
C 1.253085 -1.422689 -2.406233
C 1.935046 -1.133866 -1.204720
C 1.939492 -0.417632 1.615119
C 1.384143 -1.412572 2.447428
C 2.023209 -1.764869 3.645702
C 3.212761 -1.124081 4.029443
C 3.765995 -0.128823 3.207834
C 3.135092 0.223791 2.004224
C 1.727300 1.652219 -0.406389
C 1.432370 2.710967 0.480476
C 1.795437 4.024635 0.156403
C 2.465012 4.293355 -1.049209
C 2.770850 3.243125 -1.928097
C 2.400069 1.925303 -1.613283
C 3.219746 -1.671676 -0.990464
C 3.814506 -2.485462 -1.967826
C 3.136118 -2.763530 -3.165675
C 1.855172 -2.229194 -3.384074
H 0.239593 -1.013655 -2.553487
H 0.446496 -1.906596 2.151714
H 1.582066 -2.542178 4.288449
H 3.707508 -1.397113 4.974374
H 4.695631 0.380669 3.505181
H 3.570243 1.008462 1.366619
H 0.901808 2.505876 1.422296
H 1.534356 4.844279 0.842002
H 2.743444 5.326909 -1.306099
H 3.297933 3.448188 -2.872698
H 2.633635 1.108511 -2.312491
H 3.755926 -1.460829 -0.052766
H 4.815925 -2.906927 -1.789872
H 3.605715 -3.402120 -3.929850
H 1.318164 -2.445548 -4.320676
P -3.567375 -0.367483 0.044731
C -4.372597 0.514520 -1.356316
C -4.309527 0.424317 1.531834
C -4.334410 -2.040534 0.009071
H -3.989502 1.553043 -1.368281
H -5.477244 0.515272 -1.256732
H -4.081597 0.025805 -2.306144
H -3.927833 1.461972 1.588520
H -3.973930 -0.119895 2.435628
H -5.417578 0.426784 1.482778
H -4.039798 -2.553756 -0.926696
H -5.439713 -1.976970 0.065667
H -3.947043 -2.635563 0.858487
C -1.052959 -2.079745 -0.014058
N -0.937891 -3.298806 0.070298
H -0.741201 -3.948780 -0.695265
N -1.527123 1.776550 0.029477
C -1.597209 2.981306 -0.005234
O -1.672902 4.179038 -0.027580
