38

Ir 0.381529 -0.207956 0.033479
C -0.588755 1.515692 0.018138
C -1.363380 3.585977 0.588036
C -2.092736 3.154316 -0.487258
H -1.419299 4.513867 1.165065
H -2.915136 3.628347 -1.031257
C -2.131739 1.095428 -1.922092
H -1.379924 0.322212 -2.166138
H -3.075638 0.591948 -1.628179
H -2.307691 1.742624 -2.803420
C 0.499718 2.632378 1.981697
H 0.757523 1.593280 2.260174
H 1.429210 3.154403 1.676337
H 0.045857 3.155393 2.845291
N -0.456784 2.578587 0.887228
N -1.607156 1.899885 -0.826916
N 1.314216 -2.278533 0.099929
C 0.760363 -3.077802 -1.017744
C 2.787709 -2.243971 -0.012060
C 0.940409 -2.900069 1.392241
H 3.076256 -1.781927 -0.974241
H 3.210717 -3.274762 0.039425
H 3.210013 -1.634012 0.807508
H -0.160773 -2.921554 1.481108
H 1.348869 -2.291286 2.220494
H 1.344371 -3.937901 1.460689
H 1.030682 -2.598044 -1.977066
H -0.341117 -3.105280 -0.935961
H 1.164537 -4.117522 -0.996495
C 1.989275 0.680994 -0.171245
N 3.036693 1.297351 -0.232751
C 4.026077 1.836446 -1.102869
H 5.008453 1.344442 -0.933803
H 4.172622 2.920240 -0.906766
H 3.757108 1.713454 -2.175876
N -1.424242 -1.161333 0.212615
C -2.597064 -1.427045 0.196684
S -4.172046 -1.779442 0.139583
