31

Ir -0.247414 -0.371575 0.040937
As 2.127520 -0.607041 0.008842
C 2.868533 -2.414925 0.115694
C 3.080939 0.346818 1.428007
C 2.982257 0.128623 -1.591248
H 2.584403 -2.859906 1.088256
H 3.971384 -2.387981 0.022697
H 2.431089 -3.028990 -0.693980
H 2.698164 0.012566 2.410416
H 2.885756 1.430565 1.308609
H 4.168709 0.150998 1.355311
H 2.553567 -0.357900 -2.487203
H 4.076776 -0.037081 -1.552026
H 2.767230 1.214483 -1.625821
N -2.325063 0.044686 0.018874
C -5.071501 0.668100 -0.034508
C -4.140989 1.558272 0.520082
C -2.784939 1.217720 0.528940
C -3.227348 -0.818769 -0.517656
C -4.596563 -0.541910 -0.562281
H -6.144402 0.911693 -0.055822
H -4.452887 2.522015 0.947888
H -2.016271 1.892340 0.932046
H -2.818936 -1.759563 -0.912978
H -5.277848 -1.278349 -1.012465
C -0.500626 -2.189803 0.090296
N -0.663780 -3.403110 -0.004440
H -0.760158 -4.076378 0.759931
N 0.135291 1.646199 -0.021960
C 0.760718 2.672223 -0.099104
S 1.620511 4.032662 -0.196587
