39

Ir 0.290554 -0.182502 -0.009973
P -1.966078 -0.288314 0.041883
C -2.739944 0.625017 1.466058
C -2.657598 -2.005247 0.207427
C -2.378862 -2.924660 -0.985301
C -2.900503 0.384386 -1.423826
C -2.565040 1.829850 -1.793733
C -2.226066 0.163100 2.831642
H -2.483694 1.693386 1.303962
H -3.845369 0.532493 1.385036
H -2.181089 -2.419602 1.119696
H -3.746387 -1.905243 0.415554
H -2.652083 -0.291412 -2.268240
H -3.986121 0.257760 -1.215413
H -1.284631 -2.996447 -1.139138
H -2.777604 -3.941290 -0.788574
H -2.857641 -2.560640 -1.917414
H -2.792789 2.536420 -0.969110
H -1.487578 1.929260 -2.033078
H -3.147959 2.155939 -2.679495
H -2.515687 -0.885257 3.049202
H -1.118562 0.217892 2.863547
H -2.633981 0.797422 3.645207
N 2.416631 -0.264699 -0.011908
C 4.487036 -1.128889 -0.120021
C 3.141941 -1.430382 -0.187387
N 4.558888 0.235859 0.100141
C 3.290325 0.727374 0.161052
H 5.411873 0.785090 0.205319
H 5.380588 -1.754195 -0.207259
H 2.600390 -2.371551 -0.335918
H 3.030481 1.777303 0.334195
C 0.241381 1.635222 0.148620
N 0.260096 2.844729 0.357398
C 0.154158 4.057196 -0.395357
H 0.791485 4.851102 0.047755
H -0.890729 4.440274 -0.381418
H 0.450502 3.928815 -1.461357
F 0.458316 -2.189910 -0.156429
