34

Ir 0.121829 -0.365576 0.012805
N -0.820867 -2.339868 0.039581
C 0.152769 -3.460122 0.032074
C -1.647408 -2.445676 1.273782
C -1.697298 -2.471394 -1.156427
H -0.992659 -2.335394 2.157563
H -2.158951 -3.434982 1.307070
H -2.398079 -1.636498 1.284032
H -1.079307 -2.380758 -2.068555
H -2.447072 -1.661407 -1.153132
H -2.210396 -3.460262 -1.147923
H 0.814462 -3.383903 0.913405
H 0.771147 -3.406028 -0.882062
H -0.385227 -4.434871 0.055359
N 0.840943 1.537402 0.002258
C 1.730185 4.218811 0.029290
C 0.636153 3.827004 -0.755682
C 0.223001 2.492656 -0.751168
C 1.903879 1.920322 0.766295
C 2.370355 3.236094 0.799539
H 2.075040 5.263418 0.041549
H 0.090316 4.547925 -1.381171
H -0.631089 2.148959 -1.348584
H 2.375565 1.126324 1.360211
H 3.231703 3.479045 1.438544
C 1.843913 -1.040461 0.026935
N 2.988749 -1.434262 0.128516
C 4.160272 -1.880482 -0.543062
H 4.354864 -2.952227 -0.321266
H 5.050004 -1.313312 -0.196425
H 4.082620 -1.762505 -1.646841
N -1.765361 0.412859 0.008106
C -2.863706 0.904665 0.032058
S -4.343793 1.544026 0.051950
