40

Ir 0.006410 0.076306 -0.060091
P -2.332293 -0.059076 0.066514
C -3.002308 -0.664455 1.693301
C -3.073055 -1.207344 -1.186285
C -2.738112 -0.823221 -2.629277
C -3.293672 1.515973 -0.190176
C -3.212158 2.530097 0.953906
C -2.606272 -2.084584 2.097924
H -2.638026 0.066365 2.444980
H -4.108482 -0.550905 1.641087
H -2.641819 -2.201661 -0.948831
H -4.169865 -1.252611 -1.007804
H -2.899103 1.956723 -1.129319
H -4.348749 1.224899 -0.388403
H -1.638712 -0.777077 -2.769042
H -3.144288 -1.572985 -3.338318
H -3.160541 0.163254 -2.911040
H -3.684721 2.147247 1.880419
H -2.163768 2.799544 1.187239
H -3.742979 3.464318 0.678030
H -2.995782 -2.842136 1.388952
H -1.505992 -2.203131 2.125916
H -3.015015 -2.321940 3.101440
P 2.282333 0.014363 -0.000950
C 5.417874 -0.069150 0.193817
C 4.714611 -1.283780 0.084180
C 3.321741 -1.378660 -0.010678
C 3.387911 1.351032 0.139367
C 4.775736 1.182491 0.219734
H 6.515905 -0.099817 0.264006
H 5.297065 -2.220884 0.072462
H 2.821186 -2.356319 -0.092594
H 2.950822 2.361589 0.172484
H 5.402486 2.085992 0.311262
C 0.024730 1.961521 -0.205158
N 0.071529 3.177062 -0.293941
H 0.097378 3.802373 -1.100718
C 0.009293 -1.966246 -0.154904
C 0.022774 -3.203059 -0.260506
H 0.033543 -4.280809 -0.352533
