24

Ir -0.041552 0.116837 -0.008994
N -2.096340 0.000068 0.031688
C -4.284893 0.433477 -0.285927
C -3.004927 0.908413 -0.488789
N -4.135307 -0.775542 0.364600
C -2.807506 -1.009471 0.548282
H -4.886269 -1.397808 0.662186
H -5.263823 0.846639 -0.545224
H -2.670704 1.832689 -0.968679
H -2.384545 -1.902189 1.022004
N 1.995811 0.060966 -0.025121
C 4.208187 -0.607024 0.479609
O 4.157449 0.405405 -0.572942
C 2.856674 0.630196 -0.808328
C 2.761552 -0.682179 1.004928
H 2.612006 -0.175794 1.980758
H 2.353149 -1.708452 1.087837
H 4.954542 -0.282272 1.229183
H 4.550718 -1.554617 0.012773
H 2.601678 1.297093 -1.643419
C -0.061520 1.938178 0.250123
O -0.050856 3.108664 0.382071
S -0.067726 -2.266889 -0.410525
H 1.209048 -2.462073 -0.847107
