31

Ir 0.037971 -0.058407 0.010063
N 2.163570 0.026099 -0.022214
C 2.836583 1.029332 -0.651136
C 4.236455 1.069717 -0.662541
N 5.006848 0.146624 -0.064339
C 4.336680 -0.835766 0.559895
C 2.939927 -0.910630 0.589177
H 2.225025 1.809251 -1.127921
H 4.746546 1.897516 -1.185092
H 4.931351 -1.613699 1.070243
H 2.420047 -1.729933 1.104849
C -1.968245 0.003760 0.014564
C -4.160435 -0.301921 -0.526696
C -4.109633 0.597828 0.504320
H -5.011273 -0.716142 -1.075667
H -4.908228 1.128859 1.030844
C -2.270779 1.693692 1.833508
H -1.328700 1.286703 2.246039
H -2.048786 2.678718 1.377251
H -3.023409 1.799392 2.637544
C -2.452199 -1.579293 -1.861312
H -1.365484 -1.452321 -2.029280
H -2.658994 -2.627483 -1.561701
H -3.000774 -1.351211 -2.795852
N -2.847361 -0.651699 -0.814173
N -2.770499 0.767889 0.824636
C 0.016488 -1.879411 0.488676
N -0.016922 -3.025278 0.903349
H -0.041949 -3.937826 0.448776
C -0.038409 1.931750 -0.504082
N -0.115314 3.080815 -0.773138
