51

Ir -0.992380 -0.183140 0.023094
P 1.372632 -0.074248 0.015880
C 1.460148 -1.614350 -2.318608
C 2.144491 -1.301779 -1.124426
C 2.149588 -0.387080 1.658539
C 1.462698 -1.172447 2.607041
C 2.055873 -1.459324 3.845796
C 3.332186 -0.959509 4.150437
C 4.016227 -0.167672 3.213358
C 3.429847 0.120146 1.971423
C 2.072185 1.542737 -0.506687
C 1.905619 2.652508 0.350272
C 2.333333 3.923477 -0.054777
C 2.939986 4.095934 -1.310255
C 3.118149 2.992965 -2.159114
C 2.681519 1.717840 -1.764287
C 3.393872 -1.898651 -0.861699
C 3.952421 -2.793749 -1.787198
C 3.273982 -3.094042 -2.979517
C 2.028010 -2.502561 -3.244093
H 0.472314 -1.162525 -2.506835
H 0.452440 -1.542077 2.372781
H 1.510870 -2.070514 4.581221
H 3.792888 -1.180250 5.125620
H 5.013167 0.234036 3.451312
H 3.964254 0.751785 1.245242
H 1.425602 2.523388 1.331686
H 2.173979 4.786127 0.608850
H 3.269998 5.096390 -1.629254
H 3.595730 3.122884 -3.142376
H 2.814535 0.859414 -2.439461
H 3.929690 -1.673458 0.072453
H 4.924679 -3.262796 -1.571542
H 3.714690 -3.798307 -3.701822
H 1.487600 -2.740892 -4.172889
P -3.282352 -0.199559 0.022582
C -6.413417 -0.209432 0.023799
C -5.743209 1.028387 0.020577
C -4.350464 1.169092 0.019613
C -4.344061 -1.573687 0.026221
C -5.738750 -1.443781 0.026383
H -7.513932 -0.211519 0.024055
H -6.351564 1.948520 0.018401
H -3.886270 2.166908 0.016361
H -3.882227 -2.573717 0.027892
H -6.342434 -2.366949 0.028561
C -0.930210 -2.025044 0.020022
O -0.912453 -3.197959 0.013522
N -1.091388 1.838847 0.011507
C -1.121984 3.042454 -0.056957
O -1.151978 4.239949 -0.109919
