28

Ir -0.138415 0.296791 0.038389
N 1.987826 0.210991 0.035187
C 2.663172 -0.764314 0.694100
C 4.064138 -0.809301 0.669315
N 4.813955 0.082701 0.003671
C 4.134215 1.039898 -0.648097
C 2.735941 1.120347 -0.639907
H 2.055787 -1.516250 1.218511
H 4.591054 -1.609185 1.217942
H 4.719477 1.787685 -1.211056
H 2.194518 1.917983 -1.168249
P -2.420070 0.246931 0.019787
C -3.171777 -0.779762 1.350636
C -3.132939 -0.452505 -1.527285
C -3.292402 1.861198 0.192992
H -2.750013 -1.800246 1.268891
H -4.276529 -0.807183 1.257802
H -2.886838 -0.359429 2.334404
H -2.709842 -1.466434 -1.664675
H -2.822431 0.177110 -2.383270
H -4.239750 -0.497847 -1.473333
H -3.029347 2.314844 1.168095
H -4.390537 1.722134 0.134772
H -2.958060 2.547867 -0.608235
C -0.110027 2.122311 0.150920
N -0.066409 3.347240 0.083980
H -0.043453 4.005081 0.867746
Br -0.199559 -2.242479 -0.186514
