32

Ir -0.252723 -0.133377 -0.000037
P -2.549659 0.101683 0.000022
C -3.197392 1.044638 -1.443173
C -3.197352 1.044334 1.443438
C -3.565737 -1.436257 -0.000126
H -2.675234 2.020967 -1.466044
H -4.294087 1.194049 -1.369991
H -2.953811 0.495581 -2.373105
H -2.675441 2.020794 1.466349
H -2.953415 0.495252 2.373266
H -4.294101 1.193411 1.370470
H -3.315212 -2.036064 -0.896656
H -4.650158 -1.204473 0.000390
H -3.314483 -2.036708 0.895768
As 2.176823 0.038539 0.000005
C 2.913376 1.029484 1.519232
C 2.913683 1.029801 -1.518851
C 3.253432 -1.600890 -0.000105
H 2.402652 2.010896 1.545679
H 4.008160 1.160510 1.413552
H 2.683613 0.479407 2.451321
H 2.403389 2.011449 -1.544842
H 2.683523 0.480217 -2.451136
H 4.008537 1.160273 -1.413259
H 2.996564 -2.195287 0.897540
H 4.335758 -1.366024 0.001104
H 2.998337 -2.193980 -0.899124
C -0.281884 -2.008749 -0.000019
O -0.299591 -3.181329 -0.000044
C -0.194117 1.911505 -0.000048
C -0.147391 3.152722 -0.000087
H -0.108169 4.233867 -0.000161
