29

Ir -0.056366 -0.233208 -0.016769
P 2.204014 -0.306157 0.033856
C 2.929305 0.403185 1.575259
C 3.054774 0.659244 -1.290389
C 3.012779 -1.957573 -0.084711
H 2.574160 1.446390 1.683014
H 4.038074 0.387047 1.545115
H 2.567272 -0.179945 2.443739
H 2.767330 1.725206 -1.208895
H 2.726639 0.283025 -2.278350
H 4.156511 0.567324 -1.200839
H 2.620584 -2.614776 0.714916
H 4.113775 -1.866851 0.005741
H 2.758147 -2.415943 -1.059889
N -2.175915 0.020425 0.004731
C -4.394862 -0.340552 0.126958
C -3.155023 -0.947607 0.143843
N -4.143771 1.010758 -0.024769
C -2.798794 1.196949 -0.095559
H -4.843075 1.751941 -0.073465
H -5.407725 -0.745312 0.211032
H -2.894572 -2.005592 0.249578
H -2.283629 2.158028 -0.203762
C -0.186438 -2.059043 -0.084228
N -0.276310 -3.286331 -0.040757
H -0.294036 -3.903997 -0.857830
N 0.092328 1.829366 -0.000456
C 0.656214 2.900232 -0.022096
O 1.187307 3.976788 -0.046555
