56

Ir -1.008906 -0.088181 -0.009950
P 1.309539 -0.087901 0.026700
C 1.932889 2.513447 0.902214
C 2.091411 1.580796 -0.146980
C 2.117360 -1.067484 -1.318792
C 1.439478 -1.180434 -2.550742
C 2.032810 -1.867389 -3.620949
C 3.297867 -2.456397 -3.465822
C 3.970530 -2.356811 -2.236443
C 3.385230 -1.664321 -1.165496
C 2.087662 -0.746637 1.575210
C 1.448899 -1.808382 2.249744
C 2.030952 -2.359869 3.401093
C 3.245439 -1.856292 3.895297
C 3.884597 -0.799650 3.227285
C 3.311687 -0.246801 2.070604
C 2.766082 1.973473 -1.319327
C 3.275690 3.277376 -1.440734
C 3.121904 4.197845 -0.392845
C 2.451077 3.810567 0.780976
H 1.397622 2.219725 1.818042
H 0.434953 -0.738429 -2.648595
H 1.495652 -1.953788 -4.577996
H 3.758621 -3.003537 -4.302983
H 4.957802 -2.826789 -2.107199
H 3.914463 -1.596019 -0.202992
H 0.499100 -2.203575 1.851324
H 1.525619 -3.189797 3.919041
H 3.694854 -2.286697 4.803777
H 4.837616 -0.399850 3.607333
H 3.820546 0.581597 1.554843
H 2.895623 1.256249 -2.143733
H 3.802130 3.571312 -2.361984
H 3.526886 5.217273 -0.487604
H 2.327681 4.525278 1.609522
As -3.429747 -0.186565 0.065148
C -4.416544 1.502804 0.215317
C -4.186875 -1.202720 1.565381
C -4.309968 -1.014263 -1.481440
H -4.065311 2.039858 1.116605
H -5.506367 1.317735 0.280760
H -4.192884 2.124493 -0.672444
H -3.907701 -0.690170 2.505522
H -3.736188 -2.213172 1.571404
H -5.289222 -1.274731 1.482513
H -4.143869 -0.365223 -2.362294
H -5.395462 -1.145689 -1.304231
H -3.823352 -1.989655 -1.671140
C -1.074342 1.769200 0.142291
N -1.142244 2.973422 0.280891
C -1.093405 4.222281 -0.402678
H -1.303661 4.114001 -1.490104
H -0.082880 4.672949 -0.291708
H -1.826837 4.934778 0.028906
S -0.939797 -2.481099 -0.378850
H -2.221213 -2.871418 -0.112444
