31

Ir -0.136182 0.104011 -0.061405
C -2.193165 0.052124 0.052576
C -4.322762 0.083571 0.839049
C -4.374370 -0.258810 -0.487949
H -5.119594 0.209352 1.578067
H -5.226000 -0.493552 -1.133586
C -2.644939 -0.638492 -2.296047
H -1.917039 0.106865 -2.668083
H -2.139378 -1.624266 -2.265944
H -3.530937 -0.670193 -2.956729
C -2.472020 0.625199 2.464730
H -1.368447 0.681200 2.383709
H -2.877773 1.605434 2.785303
H -2.746053 -0.151060 3.206093
N -2.982872 0.268735 1.149092
N -3.066572 -0.269220 -0.949113
P 2.141356 -0.018872 -0.027961
C 5.281321 -0.156691 0.163078
C 4.689843 0.978241 -0.422076
C 3.308283 1.157778 -0.560625
C 3.126318 -1.281692 0.654171
C 4.525418 -1.226975 0.675492
H 6.378805 -0.205675 0.228939
H 5.354059 1.776633 -0.794475
H 2.917196 2.075492 -1.028124
H 2.595544 -2.141891 1.091446
H 5.066482 -2.073782 1.131101
C -0.098771 1.950480 -0.206183
O -0.070940 3.116478 -0.336674
S -0.369917 -2.297274 0.003194
H 0.860206 -2.700791 -0.425014
