53

Ir 1.040909 -0.180595 -0.011849
P -1.274498 0.023921 0.009620
C -2.061392 -2.614844 0.551994
C -2.223180 -1.525229 -0.331705
C -1.938821 1.214027 -1.235399
C -1.212335 1.399948 -2.429095
C -1.706288 2.252052 -3.427925
C -2.920404 2.932127 -3.237311
C -3.641075 2.757772 -2.044288
C -3.154628 1.900615 -1.044860
C -1.995830 0.605810 1.612890
C -1.278649 1.553198 2.374113
C -1.816882 2.041343 3.574016
C -3.065921 1.587678 4.029614
C -3.781205 0.643184 3.276680
C -3.251296 0.152946 2.072125
C -3.063438 -1.666015 -1.453497
C -3.731347 -2.880065 -1.686573
C -3.572033 -3.957058 -0.801820
C -2.736401 -3.820432 0.320099
H -1.400570 -2.516266 1.427514
H -0.248077 0.880693 -2.552132
H -1.132507 2.394324 -4.356613
H -3.303440 3.607111 -4.018404
H -4.588399 3.296352 -1.887085
H -3.720172 1.772065 -0.109349
H -0.300381 1.907303 2.012773
H -1.250042 2.780581 4.160922
H -3.481603 1.968303 4.975506
H -4.760002 0.281263 3.627849
H -3.817123 -0.590415 1.490377
H -3.197193 -0.824483 -2.149323
H -4.382515 -2.980767 -2.568603
H -4.096761 -4.906959 -0.986900
H -2.602470 -4.662318 1.016490
As 3.469026 -0.045125 0.024910
C 4.503367 -1.711045 0.022892
C 4.188653 0.904739 1.576545
C 4.254777 0.948875 -1.465981
H 4.221095 -2.306203 0.912257
H 5.590690 -1.501739 0.039282
H 4.244700 -2.291171 -0.883419
H 3.924654 0.344032 2.493051
H 3.697449 1.895886 1.604468
H 5.288131 1.012850 1.497910
H 4.036938 0.412210 -2.408658
H 5.348934 1.058238 -1.333347
H 3.761502 1.939129 -1.490179
C 1.054894 -2.056669 -0.104706
O 1.127115 -3.222818 -0.187070
C 1.183054 1.859047 0.005966
C 1.336180 3.091186 0.003070
H 1.421071 4.169481 -0.012836
