30

Ir -0.021478 -0.173762 0.060073
N -2.061162 -0.256308 0.044984
C -2.682988 -1.451988 -0.183133
C -4.077629 -1.535601 -0.228878
N -4.895437 -0.482249 -0.053105
C -4.271767 0.684333 0.180368
C -2.880901 0.817145 0.233403
H -1.990562 -2.306800 -0.287035
H -4.549172 -2.515354 -0.420576
H -4.902957 1.576749 0.337490
H -2.396789 1.784109 0.425348
N 2.029825 -0.301793 0.039842
C 4.833249 -0.591018 -0.048606
C 3.988600 -1.574047 -0.584749
C 2.602498 -1.404485 -0.526121
C 2.850051 0.650479 0.565453
C 4.241886 0.538578 0.538680
H 5.927510 -0.700353 -0.087888
H 4.393932 -2.480851 -1.057083
H 1.877058 -2.152055 -0.885730
H 2.349170 1.522178 1.008543
H 4.851153 1.340649 0.979987
C 0.014409 1.673789 0.002624
N 0.057066 2.889959 0.072598
C 0.256835 4.092240 -0.665684
H 1.026847 4.727921 -0.178679
H -0.678450 4.691792 -0.699475
H 0.578752 3.895781 -1.712507
O -0.044545 -2.224785 0.077471
H 0.366187 -2.549643 0.901796
