38

Ir 0.032775 -0.040885 0.085106
C 2.093730 0.022815 0.011027
C 4.251540 0.768138 -0.006781
C 4.283400 -0.586361 -0.213635
H 5.060555 1.503029 0.047339
H 5.125954 -1.267665 -0.366410
C 2.543348 -2.401174 -0.369347
H 1.456917 -2.387565 -0.583164
H 3.093505 -2.868085 -1.209676
H 2.714465 -2.982312 0.559601
C 2.432220 2.472232 0.359192
H 1.443545 2.398413 0.850694
H 3.148023 3.019287 1.003488
H 2.291435 3.005756 -0.601537
N 2.915867 1.117816 0.134111
N 2.964926 -1.019657 -0.203247
C -2.013018 -0.026897 0.020339
C -4.260308 0.457567 0.533094
C -4.205887 -0.369030 -0.762987
H -4.688046 -0.120476 1.386901
H -4.481155 0.233805 -1.661032
C -2.301974 -1.606729 -1.879267
H -2.394256 -1.120636 -2.876530
H -1.227895 -1.794554 -1.685460
H -2.861932 -2.566559 -1.894050
C -2.429282 1.564967 1.883003
H -2.754762 1.128660 2.855863
H -1.321772 1.615426 1.858890
H -2.853151 2.589283 1.800483
N -2.845796 0.745578 0.771832
N -2.795371 -0.754534 -0.822669
H -4.868816 -1.259327 -0.742515
H -4.853278 1.390758 0.431757
C 0.067371 -1.055351 1.632312
N 0.101613 -1.843322 2.580251
H 0.130366 -1.543486 3.561065
S 0.087541 1.221526 -1.973315
H -1.239530 1.467767 -2.179490
