47

Ir -0.081150 -0.026868 -0.018114
P 2.235657 0.334921 -0.003425
C 3.042861 -0.215462 1.581477
C 2.799093 2.100588 -0.163203
C 2.634777 2.701298 -1.561865
C 3.264295 -0.532477 -1.294886
C 3.069651 -2.048153 -1.363104
C 2.446322 0.453903 2.822145
H 2.885903 -1.313841 1.630566
H 4.138427 -0.039725 1.502947
H 2.177657 2.663398 0.563390
H 3.854875 2.155518 0.182633
H 2.977245 -0.070585 -2.262231
H 4.330102 -0.268562 -1.114806
H 1.592100 2.582395 -1.916144
H 2.863558 3.786519 -1.545075
H 3.316780 2.233477 -2.300775
H 3.344096 -2.547943 -0.411321
H 2.011373 -2.297096 -1.578656
H 3.698469 -2.490627 -2.162759
H 2.615027 1.550206 2.822311
H 1.350731 0.283039 2.860418
H 2.897553 0.046711 3.750164
C -2.122543 -0.248395 -0.003222
C -4.333876 0.026392 0.471043
C -4.243984 -0.884488 -0.548238
H -5.205934 0.440119 0.986521
H -5.021455 -1.424952 -1.096683
C -2.353323 -1.914600 -1.850646
H -1.288163 -1.644585 -1.989702
H -2.425766 -2.977859 -1.540422
H -2.904289 -1.772447 -2.800976
C -2.694721 1.370644 1.821457
H -3.289754 1.171313 2.733998
H -1.616315 1.264570 2.042099
H -2.886634 2.402430 1.464291
N -3.035857 0.397355 0.792168
N -2.892006 -1.036947 -0.824526
C 0.175365 -1.801062 0.439070
N 0.323604 -2.937764 0.849788
C 0.498884 -4.294411 0.457499
H 0.199889 -4.983921 1.274054
H 1.565429 -4.506334 0.220090
H -0.102886 -4.550899 -0.444293
N -0.422915 1.961665 -0.439011
C -1.039967 2.999289 -0.477873
O -1.628890 4.048269 -0.506291
