40

Ir 0.260775 -0.150615 -0.030929
P -1.993014 -0.344647 0.066603
C -2.769327 0.551882 1.499226
C -2.611473 -2.085868 0.260195
C -2.317007 -3.005172 -0.928823
C -2.979073 0.279339 -1.385894
C -2.711148 1.735008 -1.770844
C -2.205835 0.125781 2.856896
H -2.560011 1.627832 1.320495
H -3.871650 0.414407 1.445019
H -2.103181 -2.472037 1.167636
H -3.699557 -2.026994 0.486508
H -2.718368 -0.391886 -2.230215
H -4.054425 0.109247 -1.156394
H -1.223331 -3.039755 -1.098161
H -2.676285 -4.033484 -0.717626
H -2.821773 -2.666983 -1.856928
H -2.951668 2.437086 -0.946084
H -1.644135 1.878224 -2.033356
H -3.325245 2.030120 -2.646231
H -2.444066 -0.932104 3.090013
H -1.101451 0.229932 2.864042
H -2.623556 0.749363 3.673661
N 2.369603 -0.156142 -0.057932
C 4.583095 -0.980808 -0.014595
O 4.518445 0.455741 0.260222
C 3.213513 0.763907 0.277132
C 3.150968 -1.353544 -0.441284
H 2.715656 -2.241625 0.052838
H 3.040099 -1.506063 -1.534872
H 4.906325 -1.481421 0.922522
H 5.351755 -1.143119 -0.793956
H 2.939882 1.788296 0.569790
C 0.144125 1.668877 0.102838
N 0.117762 2.877281 0.302269
C -0.029110 4.096574 -0.429996
H 0.590737 4.900609 0.018986
H -1.084270 4.448667 -0.399839
H 0.261276 3.990640 -1.499702
F 0.504591 -2.152403 -0.139653
