54

Ir 1.038977 -0.132485 0.017617
P -1.269830 0.040056 0.013015
C -2.043056 -2.508594 0.899455
C -2.171849 -1.567207 -0.145797
C -1.959007 1.055261 -1.368830
C -1.179094 1.204570 -2.533451
C -1.679585 1.925672 -3.628308
C -2.955131 2.509513 -3.564292
C -3.731028 2.371644 -2.401063
C -3.236862 1.647185 -1.305566
C -2.036158 0.781281 1.529711
C -1.338605 1.799017 2.213868
C -1.910057 2.405801 3.342484
C -3.173896 2.002540 3.804028
C -3.870532 0.988054 3.128439
C -3.306885 0.378940 1.995723
C -2.909920 -1.911887 -1.293861
C -3.512320 -3.177826 -1.393827
C -3.389908 -4.105126 -0.348486
C -2.654937 -3.765539 0.801357
H -1.457833 -2.248194 1.796008
H -0.170505 0.760135 -2.556051
H -1.063458 2.040500 -4.533412
H -3.344305 3.081346 -4.421084
H -4.727608 2.836189 -2.343223
H -3.845791 1.550417 -0.393726
H -0.348591 2.113894 1.847848
H -1.357208 3.199499 3.868551
H -3.615912 2.477077 4.693926
H -4.860983 0.664461 3.484530
H -3.858827 -0.419489 1.476830
H -3.014254 -1.188516 -2.116410
H -4.084445 -3.437164 -2.298030
H -3.866940 -5.094181 -0.427495
H -2.557934 -4.486974 1.627880
As 3.464856 -0.043092 0.059640
C 4.473969 -1.722628 0.157874
C 4.211125 0.988992 1.546152
C 4.271657 0.843373 -1.488471
H 4.219617 -2.233458 1.106177
H 5.564195 -1.533403 0.113635
H 4.164965 -2.371944 -0.683215
H 3.937647 0.495025 2.497654
H 3.739739 1.989609 1.510485
H 5.312467 1.069651 1.460025
H 4.042397 0.255149 -2.397130
H 5.367917 0.940672 -1.363419
H 3.797170 1.839609 -1.572855
C 1.017827 -2.018137 -0.078784
N 1.064222 -3.213536 -0.309411
H 0.844592 -4.035380 0.252129
C 1.201627 1.910247 -0.045379
C 1.376226 3.138260 -0.120505
H 1.478682 4.212353 -0.198468
