33

Ir 0.080822 0.120018 -0.052740
As -2.357681 -0.047904 0.046331
C -3.454241 1.462757 -0.556298
C -3.069553 -0.405896 1.835394
C -3.102200 -1.548798 -0.967959
H -3.199822 2.353030 0.050247
H -4.533454 1.235968 -0.455527
H -3.213184 1.679029 -1.614753
H -2.819948 0.441916 2.501046
H -2.567169 -1.318605 2.209365
H -4.166734 -0.553399 1.802081
H -2.876045 -1.407636 -2.041852
H -4.196729 -1.624918 -0.816925
H -2.596862 -2.465961 -0.608932
C 2.115536 -0.027525 -0.011691
C 4.234822 -0.790826 -0.329274
C 4.310445 0.296655 0.500754
H 5.017297 -1.447382 -0.721436
H 5.171739 0.781577 0.969878
C 2.639172 1.897052 1.494598
H 2.785102 2.841189 0.930652
H 1.569043 1.796818 1.757557
H 3.251130 1.920090 2.416580
C 2.367358 -2.053179 -1.455722
H 2.088229 -2.919366 -0.823833
H 1.454045 -1.693661 -1.965207
H 3.128318 -2.348044 -2.202703
N 2.893473 -0.969751 -0.634399
N 3.009977 0.745473 0.686234
C 0.072052 1.849133 -0.771065
O 0.033169 2.932468 -1.216828
C -0.013784 -1.780996 0.712998
N -0.128843 -2.887326 1.115312
