30

Ir 0.000004 0.162823 0.000021
As 2.392178 -0.159897 -0.000006
C 3.657013 1.333304 -0.000063
C 2.955327 -1.263542 -1.514001
C 2.955349 -1.263480 1.514022
H 3.474238 1.953210 -0.898476
H 4.702203 0.967407 -0.000351
H 3.474648 1.952952 0.898612
H 2.827369 -0.690601 -2.451619
H 2.266906 -2.130304 -1.521656
H 4.006219 -1.596156 -1.405919
H 2.827401 -0.690501 2.451618
H 4.006239 -1.596109 1.405959
H 2.266927 -2.130243 1.521724
As -2.392167 -0.159923 0.000008
C -2.955166 -1.264102 1.513668
C -2.955442 -1.262915 -1.514418
C -3.657056 1.333225 0.000661
H -2.266567 -2.130725 1.521099
H -4.005998 -1.596868 1.405485
H -2.827326 -0.691368 2.451430
H -2.267101 -2.129737 -1.522492
H -2.827489 -0.689572 -2.451790
H -4.006354 -1.595504 -1.406441
H -3.474179 1.952919 0.899198
H -4.702219 0.967249 0.001029
H -3.474895 1.953113 -0.897890
C -0.000041 1.978089 -0.000004
O -0.000092 3.156995 -0.000031
F 0.000011 -1.873540 -0.000019
