36

Ir -0.418911 -0.059651 -0.026867
As 1.880116 0.445358 -0.039382
C 2.408932 2.330853 0.037412
C 2.852631 -0.201251 -1.615255
C 2.938713 -0.347562 1.409545
H 1.923851 2.869183 -0.798755
H 3.509478 2.431130 -0.030983
H 2.050953 2.761797 0.991912
H 2.417819 0.263692 -2.519957
H 2.715321 -1.297931 -1.673600
H 3.930900 0.041581 -1.539798
H 2.510600 -0.032489 2.379568
H 3.995748 -0.024460 1.335779
H 2.877359 -1.449896 1.329980
N -2.539818 -0.782216 -0.036697
C -3.525503 0.318974 -0.097758
C -2.709372 -1.656477 -1.223253
C -2.761490 -1.570098 1.200275
H -2.539094 -1.062246 -2.140179
H -3.737960 -2.087374 -1.244027
H -1.959774 -2.467243 -1.180683
H -2.628480 -0.912464 2.079336
H -2.012291 -2.380848 1.247633
H -3.790959 -1.999235 1.208134
H -3.354755 0.922095 -1.007889
H -3.403017 0.974734 0.783516
H -4.563160 -0.088538 -0.111532
C -0.849602 1.730487 -0.108846
N -1.096642 2.915964 -0.243476
C -1.294018 4.140083 0.456789
H -2.143011 4.709901 0.023497
H -0.394334 4.789298 0.372666
H -1.499503 3.980832 1.539403
N 0.117618 -2.053117 0.077269
C 0.897423 -2.974084 0.181939
O 1.649029 -3.904400 0.287452
