30

Ir 0.102814 -0.173055 0.018447
N -1.928484 -0.194522 0.042757
C -2.644889 -1.195801 -0.552897
C -4.043063 -1.194816 -0.537691
N -4.783062 -0.239250 0.050874
C -4.071869 0.736149 0.642356
C -2.675489 0.776188 0.650387
H -2.059669 -1.998985 -1.020412
H -4.582094 -2.019647 -1.035715
H -4.634234 1.540946 1.147957
H -2.123847 1.586269 1.144893
N 2.155311 -0.245538 0.007580
C 4.456885 0.280648 0.268826
O 4.239073 -1.097212 -0.154661
C 2.915188 -1.273951 -0.226278
C 3.046891 0.907806 0.265507
H 2.900442 1.660569 -0.535736
H 2.770462 1.382446 1.226428
H 5.164174 0.748682 -0.443212
H 4.925498 0.252047 1.273957
H 2.530177 -2.278000 -0.459615
C 0.115859 1.735697 -0.035121
N 0.108252 2.942224 -0.026803
C 0.056523 4.242228 -0.581312
H -0.845888 4.784820 -0.227007
H 0.028604 4.215387 -1.693351
H 0.940174 4.839618 -0.270146
C 0.100960 -2.212088 0.051108
C 0.109407 -3.454672 0.068845
H 0.094433 -4.535964 0.105601
