36

Ir 0.154998 -0.208870 -0.018513
As 2.387355 0.711348 -0.022569
C 3.922343 -0.506756 -0.035652
C 2.782812 1.890022 1.492109
C 2.762047 1.890372 -1.542294
H 3.887378 -1.132171 0.876803
H 4.874970 0.056821 -0.068352
H 3.842637 -1.166891 -0.920303
H 2.750727 1.297989 2.426217
H 1.987667 2.658892 1.530934
H 3.775357 2.368100 1.376869
H 2.712643 1.298764 -2.475893
H 3.758168 2.364614 -1.442541
H 1.969887 2.662869 -1.567700
As -2.184752 -0.832461 -0.037450
C -3.202529 -0.101734 -1.543525
C -3.231324 -0.159917 1.476177
C -2.646694 -2.737145 -0.078662
H -3.142797 1.002836 -1.488890
H -4.260841 -0.424579 -1.489672
H -2.746279 -0.444139 -2.491171
H -3.183501 0.946582 1.459125
H -2.785287 -0.527954 2.419081
H -4.284978 -0.492418 1.396282
H -2.170580 -3.198421 -0.964841
H -3.744357 -2.876311 -0.122609
H -2.243438 -3.220481 0.831765
C 0.745998 -1.968265 -0.081508
N 1.116240 -3.115944 -0.197643
C 1.498532 -4.343316 0.402795
H 2.500456 -4.662186 0.043696
H 0.785525 -5.152013 0.132677
H 1.535445 -4.272852 1.513135
N -0.557636 1.710317 0.060369
C -1.280704 2.670216 0.095353
S -2.278294 3.939449 0.142730
