38

Ir 0.305858 -0.110503 -0.021978
P 2.212278 1.233566 0.034209
C 2.416484 2.178418 1.605237
C 2.207925 2.568281 -1.239189
C 3.858802 0.433139 -0.196904
H 1.481043 2.743990 1.783611
H 3.278210 2.875407 1.559559
H 2.554098 1.466007 2.441625
H 1.269108 3.144998 -1.124761
H 2.210876 2.106990 -2.245814
H 3.081098 3.244197 -1.133573
H 4.015025 -0.307241 0.612022
H 4.681578 1.176198 -0.181204
H 3.863300 -0.107953 -1.163240
C -1.492642 -1.105488 -0.046651
C -3.651840 -1.658564 -0.513010
C -3.223343 -2.491071 0.486978
H -4.619476 -1.586158 -1.018716
H -3.741087 -3.291414 1.024266
C -1.079735 -2.774494 1.770046
H -0.717132 -3.763499 1.420636
H -0.212651 -2.112435 1.957232
H -1.657997 -2.906833 2.705238
C -2.644987 0.225733 -1.834153
H -3.152845 1.127331 -1.434698
H -1.608335 0.497115 -2.105785
H -3.183073 -0.147730 -2.726855
N -2.586616 -0.827741 -0.827707
N -1.908853 -2.137750 0.759688
C 1.272228 -1.653844 -0.381102
N 1.902300 -2.639708 -0.698902
C 2.634259 -3.789820 -0.306690
H 3.728840 -3.602583 -0.370197
H 2.412587 -4.647401 -0.976632
H 2.402313 -4.099729 0.737829
N -0.756774 1.606211 0.331231
C -1.543371 2.512211 0.369265
S -2.618361 3.720118 0.386593
