44

Ir -0.067419 -0.418178 0.081479
P 2.254593 -0.036023 -0.046158
C 3.024224 0.875826 1.384109
C 2.698549 1.037479 -1.497698
C 2.226436 0.477078 -2.841147
C 3.394149 -1.493877 -0.264194
C 3.585819 -2.373479 0.973818
C 2.329363 2.188306 1.755434
H 2.990793 0.171555 2.241686
H 4.098277 1.036469 1.140503
H 2.214445 2.016319 -1.302338
H 3.798675 1.199699 -1.479701
H 2.955444 -2.087518 -1.093158
H 4.370489 -1.102368 -0.625136
H 1.128243 0.323864 -2.831187
H 2.469661 1.177543 -3.665899
H 2.702093 -0.496641 -3.079150
H 4.090886 -1.829630 1.797219
H 2.617531 -2.751478 1.354031
H 4.213882 -3.254409 0.728793
H 2.341072 2.926224 0.928629
H 1.266567 2.014792 2.014481
H 2.828349 2.656934 2.628130
C -2.119873 -0.544616 0.088669
C -4.314282 -0.110644 0.510737
C -4.265345 -1.083765 -0.452686
H -5.166464 0.384950 0.985470
H -5.066495 -1.609830 -0.980570
C -2.426681 -2.307173 -1.661305
H -1.440028 -1.964515 -2.024627
H -2.295261 -3.300654 -1.188306
H -3.136289 -2.383552 -2.506704
C -2.618835 1.216664 1.804518
H -1.573117 1.026590 2.107715
H -2.677922 2.231996 1.363094
H -3.284748 1.149812 2.686514
N -3.000981 0.200837 0.831250
N -2.922600 -1.332064 -0.699018
C 0.085143 -2.215919 0.441427
N 0.137469 -3.438083 0.563282
H 0.184499 -3.963329 1.440168
N -0.296919 1.578896 -0.305806
C -0.499525 2.757443 -0.403654
S -0.766990 4.347510 -0.498580
