30

Ir -0.492203 0.052617 -0.009154
N -2.741162 -0.083733 0.042406
C -3.398110 1.244526 0.066040
C -3.202576 -0.826986 -1.160053
C -3.129905 -0.830021 1.269055
H -2.888834 -0.282132 -2.069800
H -4.313184 -0.920203 -1.148303
H -2.743286 -1.831706 -1.170497
H -2.762219 -0.287162 2.159554
H -2.672043 -1.835177 1.249096
H -4.239311 -0.922579 1.323147
H -3.130472 1.810163 -0.844862
H -3.058724 1.815324 0.949289
H -4.504934 1.125206 0.107973
P 1.718373 -0.006805 -0.000188
C 4.849602 -0.125009 0.037273
C 4.128070 -1.330859 -0.046998
C 2.731558 -1.416565 -0.072488
C 2.834763 1.321069 0.099244
C 4.222740 1.132093 0.107739
H 5.949104 -0.167687 0.051144
H 4.697195 -2.274666 -0.095876
H 2.222060 -2.390723 -0.136026
H 2.413793 2.335966 0.166612
H 4.862216 2.028529 0.176833
C -0.466723 1.942997 -0.077032
N -0.419217 3.156079 -0.054807
H -0.360031 3.900661 -0.747831
C -0.495447 -1.996394 -0.028512
N -0.524068 -3.178396 -0.048798
