25

Ir -0.251819 0.276913 0.000086
N -2.380445 0.309074 0.000270
C -4.690150 -0.252540 -0.000559
O -4.457651 1.192432 -0.000260
C -3.137560 1.361787 0.000164
C -3.275579 -0.872467 -0.000140
H -3.054473 -1.496869 -0.887262
H -3.055086 -1.496991 0.887052
H -5.286523 -0.492905 -0.902738
H -5.287167 -0.493177 0.901120
H -2.776018 2.400605 0.000497
P 1.985001 0.171978 -0.000149
C 5.117410 0.111457 -0.000090
C 4.415829 -1.108545 -0.000152
C 3.020837 -1.220987 -0.000189
C 3.078297 1.522128 -0.000166
C 4.469274 1.359507 -0.000116
H 6.217553 0.087778 -0.000025
H 5.000545 -2.044039 -0.000187
H 2.527460 -2.204558 -0.000231
H 2.643646 2.533798 -0.000227
H 5.091823 2.270083 -0.000107
C -0.169421 2.103086 0.000111
O -0.117206 3.277268 0.000109
Br -0.346238 -2.254495 0.000109
