54

Ir 1.125893 0.118252 0.098488
P -1.222459 0.002711 -0.011377
C -1.976714 2.475058 1.092330
C -2.151131 1.076086 1.176184
C -1.927501 -1.676133 0.307995
C -1.268454 -2.497854 1.246456
C -1.786235 -3.762733 1.562775
C -2.956128 -4.221908 0.936022
C -3.609090 -3.411521 -0.007309
C -3.099640 -2.141769 -0.320619
C -1.960547 0.472700 -1.646867
C -1.278559 0.087087 -2.820937
C -1.819849 0.391175 -4.078964
C -3.036160 1.086956 -4.180459
C -3.717553 1.471941 -3.015006
C -3.185532 1.165024 -1.751860
C -2.992605 0.547283 2.174699
C -3.646056 1.404563 3.075818
C -3.471922 2.793701 2.984700
C -2.636932 3.326874 1.988022
H -1.319808 2.900209 0.318008
H -0.337715 -2.135536 1.711352
H -1.265144 -4.398720 2.294916
H -3.356949 -5.218594 1.177663
H -4.521338 -3.771652 -0.507675
H -3.612897 -1.511999 -1.063098
H -0.328392 -0.466907 -2.732354
H -1.282424 0.082966 -4.989352
H -3.454202 1.330109 -5.169769
H -4.672454 2.015690 -3.086028
H -3.727453 1.469517 -0.843798
H -3.139939 -0.540348 2.249784
H -4.298798 0.978969 3.853700
H -3.985424 3.463345 3.691743
H -2.491388 4.415304 1.911323
C 3.168283 0.090738 0.042771
C 5.336129 0.539355 -0.487105
C 5.335182 -0.485912 0.423416
H 6.162782 1.047370 -0.992649
H 6.162025 -1.047727 0.868493
C 3.534345 -1.767267 1.658754
H 2.972858 -1.294084 2.487376
H 2.845767 -2.448902 1.120354
H 4.402981 -2.322892 2.058010
C 3.549148 1.921728 -1.608735
H 3.928453 1.738967 -2.633581
H 2.441155 1.887929 -1.609971
H 3.891837 2.916327 -1.258951
N 4.007289 0.876473 -0.705975
N 4.007772 -0.743385 0.734404
C 1.141473 1.661756 1.107822
O 1.211441 2.636266 1.761263
S 1.192760 -1.975004 -1.133942
H 2.484800 -1.938640 -1.573931
