33

Ir 0.000208 0.057368 -0.003207
N 2.177012 -0.044973 0.014018
C 2.843077 1.281457 0.032571
C 2.601348 -0.790239 1.231892
C 2.636918 -0.777123 -1.198282
H 2.249555 -0.244709 2.126558
H 3.712518 -0.877663 1.257323
H 2.138966 -1.793170 1.220080
H 2.307010 -0.224941 -2.097242
H 2.177271 -1.781309 -1.209244
H 3.748688 -0.860805 -1.194741
H 2.516608 1.851144 0.920389
H 2.562359 1.849544 -0.871997
H 3.948883 1.150969 0.057388
N -2.176844 -0.045982 0.014075
C -2.843642 1.280077 0.032972
C -2.636550 -0.777980 -1.198478
C -2.600626 -0.791678 1.231791
H -2.306591 -0.225497 -2.097233
H -3.748293 -0.861773 -1.194976
H -2.176707 -1.782064 -1.209639
H -2.249204 -0.246039 2.126541
H -2.137686 -1.794351 1.219847
H -3.711752 -0.879836 1.257307
H -2.563449 1.848466 -0.871567
H -2.517391 1.849847 0.920821
H -3.949362 1.148927 0.057972
C -0.000835 1.925076 -0.024934
N -0.002587 3.151751 0.050929
H -0.003189 3.832718 -0.712322
C 0.000274 -2.008285 -0.039087
C 0.000438 -3.252594 -0.057777
H 0.000282 -4.334634 -0.075495
