53

Ir -1.238756 -0.012761 0.049378
P 1.022904 0.056239 0.024999
C 1.132434 -1.506536 -2.297468
C 1.770605 -1.249933 -1.063712
C 1.859054 -0.214608 1.656184
C 1.173589 -0.918130 2.667555
C 1.798511 -1.169832 3.898872
C 3.106450 -0.715890 4.134284
C 3.790954 -0.006479 3.133472
C 3.171954 0.244425 1.898994
C 1.800106 1.621105 -0.568043
C 1.648641 2.774736 0.231119
C 2.139778 4.009994 -0.210628
C 2.801333 4.103777 -1.446467
C 2.967926 2.957262 -2.237924
C 2.465687 1.718611 -1.805202
C 2.907678 -2.001143 -0.707718
C 3.400375 -2.991822 -1.574373
C 2.769706 -3.233790 -2.805101
C 1.635630 -2.486183 -3.166295
H 0.220737 -0.941127 -2.551522
H 0.140731 -1.250540 2.479789
H 1.254283 -1.717329 4.683884
H 3.592031 -0.907787 5.103735
H 4.813311 0.359458 3.315840
H 3.708717 0.809368 1.121108
H 1.127343 2.707119 1.197864
H 1.986271 4.906678 0.407757
H 3.182870 5.075748 -1.795182
H 3.488567 3.024118 -3.205802
H 2.593257 0.826871 -2.436759
H 3.407160 -1.822205 0.256034
H 4.284950 -3.578838 -1.282209
H 3.159034 -4.009989 -3.482086
H 1.132240 -2.674249 -4.127367
N -3.373074 -0.082888 0.097588
C -5.497863 -0.793605 0.326899
C -4.172476 -1.174441 0.389887
N -5.481741 0.547190 -0.009989
C -4.188820 0.946486 -0.141896
H -6.297099 1.146619 -0.139098
H -6.426096 -1.348539 0.491752
H -3.735761 -2.150426 0.623368
H -3.851382 1.957563 -0.392458
C -1.093670 -1.856837 0.126327
N -0.977468 -3.063213 0.226823
C -0.592756 -4.239931 -0.482191
H -0.958012 -5.149800 0.036177
H 0.515595 -4.304728 -0.546286
H -0.989479 -4.244262 -1.521523
N -1.445115 2.017219 -0.108812
C -1.337298 3.216029 -0.205753
O -1.263998 4.412189 -0.294789
