33

Ir -0.075716 0.079155 -0.033431
N -2.225192 -0.026351 0.028160
C -5.048755 -0.176277 0.080768
C -4.261023 -1.333505 0.149809
C -2.867207 -1.222944 0.122008
C -2.995962 1.093242 -0.034178
C -4.392750 1.059892 -0.011763
H -6.147444 -0.234836 0.100509
H -4.713608 -2.332564 0.228603
H -2.218255 -2.107897 0.194941
H -2.458208 2.048569 -0.105966
H -4.952049 2.005058 -0.066938
C 1.926297 0.003800 -0.025445
C 4.089602 -0.821247 -0.367482
C 4.169015 0.447867 0.495962
H 4.307004 -1.744689 0.218683
H 4.615109 1.309865 -0.054528
C 2.364162 1.769593 1.682685
H 2.627510 2.771285 1.272633
H 1.267367 1.711465 1.823142
H 2.864747 1.648747 2.666443
C 2.181037 -1.854535 -1.665656
H 2.165956 -2.842801 -1.155865
H 1.141748 -1.595490 -1.944454
H 2.809184 -1.917136 -2.578646
N 2.688211 -0.817885 -0.792212
N 2.758262 0.706973 0.787708
H 4.751806 0.305310 1.429181
H 4.775152 -0.802051 -1.239407
C -0.031070 1.811109 -0.743066
O 0.059654 2.902375 -1.162204
C 0.033582 -1.808816 0.764159
N 0.138053 -2.912141 1.175866
