35

Ir 0.008360 -0.121092 -0.004993
As -2.380100 -0.320097 -0.008036
C -3.463719 1.310656 -0.090575
C -3.155353 -1.247723 1.543374
C -3.128499 -1.381809 -1.484353
H -3.264497 1.910064 0.818157
H -4.542695 1.070890 -0.157280
H -3.144128 1.896605 -0.973172
H -2.979506 -0.631016 2.445201
H -2.621158 -2.208770 1.673357
H -4.239955 -1.430172 1.410143
H -2.917679 -0.857521 -2.435734
H -4.219446 -1.534310 -1.364854
H -2.607666 -2.358627 -1.503972
As 2.420246 -0.218808 -0.006707
C 3.120018 -1.273402 -1.500386
C 3.120028 -1.216579 1.523515
C 3.497508 1.416704 -0.049939
H 2.560995 -2.228489 -1.474615
H 4.209005 -1.451402 -1.401584
H 2.899643 -0.750537 -2.450114
H 2.506068 -2.137379 1.563124
H 2.954677 -0.630089 2.446924
H 4.195118 -1.454584 1.404110
H 3.195203 2.013939 -0.931375
H 4.578558 1.182361 -0.101942
H 3.284120 2.004773 0.863136
C -0.080929 1.712504 -0.207497
N -0.145503 2.916374 -0.425434
C -0.218851 4.123684 0.340182
H -1.174020 4.656291 0.138298
H 0.597925 4.820043 0.051748
H -0.149504 3.944954 1.437602
O 0.289691 -2.141605 0.213106
H -0.529816 -2.665101 0.241118
