33

Ir 0.166659 -0.204671 0.027816
C -1.820116 -0.262392 0.088441
C -4.000772 0.158665 0.635148
C -3.997638 -0.805765 -0.337493
H -4.827916 0.627147 1.176852
H -4.822753 -1.341367 -0.816656
C -2.225893 -2.011051 -1.660782
H -2.041013 -1.500256 -2.628187
H -1.286225 -2.465508 -1.281599
H -3.008188 -2.782481 -1.794676
C -2.237808 1.428847 1.896131
H -1.268751 1.087641 2.305199
H -2.086413 2.435635 1.457912
H -2.995781 1.481505 2.701237
N -2.673216 0.472795 0.889557
N -2.670844 -1.055916 -0.652604
N 2.294161 -0.297604 0.069683
C 4.369116 -1.036051 0.552363
C 3.021802 -1.324680 0.649683
N 4.444149 0.183291 -0.094206
C 3.175756 0.600622 -0.372138
H 5.297875 0.691797 -0.323678
H 5.258370 -1.577390 0.888727
H 2.500897 -2.178366 1.097374
H 2.922894 1.548556 -0.857799
C 0.174306 1.625613 -0.123751
N 0.250776 2.850970 -0.219235
C 0.083786 3.798987 -1.283654
H 0.936894 4.511266 -1.313406
H -0.829875 4.413071 -1.121791
H -0.002763 3.317972 -2.284901
O 0.208667 -2.257622 0.105916
H 0.980253 -2.560108 -0.409825
