39

Ir 0.071993 -0.411197 0.003786
P -2.292592 -0.378140 0.008156
C -3.063615 0.048937 -1.625848
C -2.983540 0.881691 1.179569
C -2.475365 0.733255 2.615365
C -3.164102 -1.943896 0.507744
C -3.153080 -3.077136 -0.521750
C -2.576647 1.353893 -2.259407
H -2.840992 -0.810013 -2.292694
H -4.164791 0.056563 -1.464014
H -2.709609 1.878127 0.775437
H -4.091040 0.798987 1.121080
H -2.677870 -2.266822 1.451891
H -4.207152 -1.657411 0.765297
H -1.370261 0.814052 2.647998
H -2.896390 1.532346 3.257974
H -2.758425 -0.241287 3.063201
H -3.712409 -2.808205 -1.439821
H -2.125717 -3.364165 -0.817340
H -3.635879 -3.980324 -0.096831
H -2.773210 2.239675 -1.622988
H -1.485468 1.322166 -2.445332
H -3.088564 1.518098 -3.229077
P 2.358623 -0.205980 -0.016820
C 5.468417 0.146202 -0.057042
C 4.660243 1.298563 -0.081546
C 3.260727 1.276737 -0.066636
C 3.571445 -1.448320 0.006895
C 4.941535 -1.157524 -0.014718
H 6.561762 0.270721 -0.071406
H 5.158445 2.282110 -0.114221
H 2.682689 2.213633 -0.086543
H 3.228845 -2.494702 0.040103
H 5.648496 -2.003997 0.002533
C 0.179227 -2.247028 0.080439
O 0.267652 -3.415050 0.150436
N -0.059620 1.617232 -0.023804
C -0.360751 2.779594 0.007406
S -0.801702 4.328397 0.045844
