29

Ir -0.015876 0.032945 0.014327
N -2.070108 0.043148 -0.024853
C -4.221000 0.601725 -0.405496
C -2.911251 1.008461 -0.559439
N -4.159073 -0.622452 0.231143
C -2.852847 -0.934123 0.450817
H -4.951713 -1.208814 0.491352
H -5.166942 1.068578 -0.694692
H -2.509737 1.918826 -1.013757
H -2.491181 -1.851271 0.924494
N 2.012902 -0.113947 0.022039
C 4.319479 0.251656 -0.391568
O 4.069527 -1.010605 0.290545
C 2.737811 -1.117869 0.416502
C 2.942044 0.944876 -0.432116
H 2.647438 1.291504 -1.440713
H 2.859411 1.810716 0.256664
H 4.720333 0.015840 -1.399439
H 5.090172 0.804017 0.180247
H 2.330802 -2.047659 0.835149
C 0.030216 1.871680 -0.062374
N 0.032679 3.084095 -0.208670
C 0.022686 4.303617 0.533117
H -0.870806 4.911644 0.274106
H 0.911272 4.922413 0.281957
H 0.017505 4.133403 1.633041
N -0.093429 -2.018961 0.101600
C -0.234854 -3.207844 -0.060892
O -0.371857 -4.394669 -0.192009
