33

Ir 0.088335 0.049455 0.012323
N -2.021058 -0.179947 0.014652
C -2.595372 -1.292706 -0.511369
C -3.987262 -1.452297 -0.510603
N -4.830632 -0.541011 0.000510
C -4.250810 0.551486 0.524162
C -2.864635 0.746553 0.538511
H -1.903110 -2.051074 -0.905773
H -4.428786 -2.364403 -0.948477
H -4.912886 1.320071 0.959964
H -2.407885 1.650984 0.964806
P 2.361578 0.099551 0.017493
C 3.143069 -0.748511 -1.420541
C 3.123052 -0.750136 1.465537
C 3.177446 1.752229 0.023682
H 2.803146 -1.801782 -1.439773
H 4.249408 -0.714569 -1.351096
H 2.809861 -0.257092 -2.354786
H 2.794435 -1.807343 1.473907
H 2.768306 -0.266156 2.395628
H 4.230154 -0.705490 1.415991
H 2.880110 2.306415 -0.887707
H 4.280874 1.650686 0.051453
H 2.831841 2.324576 0.906112
C -0.016345 1.897295 0.063630
N -0.080609 3.103716 0.187113
C -0.064529 4.366733 -0.468316
H -0.803383 5.056440 -0.009829
H -0.295598 4.278709 -1.553129
H 0.933864 4.845613 -0.365628
N 0.237501 -1.999982 -0.040099
C 0.771082 -3.083883 0.037972
O 1.274195 -4.170862 0.105728
