53

Ir 1.151046 -0.118374 0.011408
P -1.204020 0.015965 0.029890
C -1.840466 -2.696660 -0.211281
C -2.136146 -1.402803 -0.692536
C -1.805075 1.475563 -0.926039
C -1.072051 1.851333 -2.071317
C -1.499257 2.931425 -2.857712
C -2.653278 3.649291 -2.501200
C -3.379491 3.284430 -1.355595
C -2.959154 2.200522 -0.568350
C -1.980507 0.231864 1.693656
C -1.320703 1.067607 2.622479
C -1.889162 1.282586 3.886785
C -3.104395 0.669261 4.236575
C -3.757170 -0.164384 3.314690
C -3.199633 -0.384275 2.044327
C -3.114301 -1.245000 -1.694051
C -3.787988 -2.367034 -2.204605
C -3.495978 -3.649988 -1.716817
C -2.521500 -3.812021 -0.717300
H -1.066604 -2.826389 0.561578
H -0.155281 1.290697 -2.319793
H -0.922723 3.220070 -3.750246
H -2.984362 4.501548 -3.114784
H -4.279463 3.850337 -1.069051
H -3.526932 1.919923 0.332167
H -0.364178 1.534812 2.329668
H -1.372821 1.934153 4.608969
H -3.543123 0.839001 5.232278
H -4.708341 -0.649647 3.583715
H -3.714769 -1.040052 1.325915
H -3.350233 -0.241323 -2.078372
H -4.547514 -2.234156 -2.990530
H -4.024744 -4.527651 -2.119507
H -2.282093 -4.816392 -0.335662
C 3.194084 0.023287 0.071913
C 5.407983 -0.432625 0.340904
C 5.302453 0.847658 -0.138553
H 6.286061 -1.025135 0.614665
H 6.071643 1.591547 -0.367164
C 3.390574 2.361771 -0.792090
H 3.129158 2.265810 -1.865059
H 2.479394 2.583948 -0.203268
H 4.140605 3.164660 -0.665880
C 3.769871 -2.241373 0.964590
H 2.801819 -2.172853 1.494653
H 3.663154 -2.963438 0.130649
H 4.557614 -2.588613 1.659324
N 4.113802 -0.915687 0.467998
N 3.949876 1.108268 -0.291376
C 1.205850 -1.703567 -0.865864
O 1.269700 -2.736025 -1.431856
F 1.112535 1.682600 0.969095
