38

Ir 0.077253 0.036683 -0.006307
As -2.360004 -0.188468 0.018091
C -3.118310 -0.678266 1.757445
C -3.142516 -1.561806 -1.142227
C -3.431870 1.393069 -0.452168
H -2.612343 -1.616442 2.053098
H -4.214492 -0.823833 1.691131
H -2.882335 0.115860 2.491140
H -2.668099 -2.521683 -0.863471
H -2.904384 -1.325946 -2.196791
H -4.240110 -1.616958 -1.003877
H -3.151347 2.224735 0.222722
H -4.515645 1.184740 -0.358646
H -3.197412 1.688967 -1.492922
C 2.108865 -0.000867 0.046265
C 4.280022 -0.325303 -0.545888
C 4.259883 -0.029637 0.792864
H 5.114802 -0.555502 -1.214896
H 5.073066 0.055876 1.520028
C 2.445027 0.482080 2.468595
H 2.851638 1.454443 2.813381
H 1.338988 0.536722 2.405415
H 2.734055 -0.312997 3.184529
C 2.522982 -0.628805 -2.328780
H 2.439713 -1.727045 -2.436586
H 1.511607 -0.196813 -2.460542
H 3.227063 -0.203868 -3.070496
N 2.964566 -0.294427 -0.982773
N 2.929081 0.165897 1.134836
C -0.016732 1.909955 -0.070146
N -0.107594 3.111501 -0.069643
C -0.146708 4.420030 -0.597808
H 0.363167 5.138080 0.079395
H -1.196395 4.767476 -0.716745
H 0.348179 4.477400 -1.593024
N 0.144972 -2.091832 0.019062
O 1.006420 -2.713803 -0.626735
O -0.702556 -2.719829 0.696302
