34

Ir -0.311737 -0.107379 -0.000363
P -2.628605 -0.345343 -0.002294
C -3.277941 -1.280933 1.443695
C -3.273693 -1.287341 -1.445978
C -3.645524 1.194893 -0.007322
H -2.752051 -2.255319 1.467158
H -4.374434 -1.431160 1.369235
H -3.034142 -0.728955 2.371812
H -2.747664 -2.261767 -1.463669
H -3.026987 -0.739363 -2.375701
H -4.370391 -1.437225 -1.374137
H -3.396749 1.794603 0.889837
H -4.730111 0.963926 -0.009426
H -3.392423 1.791474 -0.905365
P 1.956352 -0.144331 -0.000523
C 5.103786 -0.230929 -0.001975
C 4.392511 -1.446160 0.005105
C 2.996700 -1.538562 0.006454
C 3.074683 1.191043 -0.008536
C 4.464984 1.022450 -0.008519
H 6.204045 -0.262596 -0.002534
H 4.971565 -2.385540 0.009888
H 2.490680 -2.516993 0.011908
H 2.645054 2.205368 -0.014223
H 5.096997 1.927075 -0.014049
C -0.381487 1.813495 -0.005202
N -0.445777 3.008541 -0.012835
C -0.508686 4.410484 0.021152
H -1.563710 4.760425 0.006074
H 0.008438 4.858033 -0.855776
H -0.030745 4.813725 0.941041
C -0.316087 -2.143348 0.006399
C -0.364088 -3.384474 0.010414
H -0.380338 -4.465933 0.013837
