31

Ir -0.261859 -0.028368 0.020107
N -2.378282 -0.018281 -0.018989
C -4.666483 -0.621537 -0.210162
O -4.475443 0.681601 0.429968
C -3.157158 0.870450 0.508925
C -3.243949 -1.061973 -0.617987
H -3.079823 -1.076415 -1.714413
H -2.954089 -2.045791 -0.203334
H -5.364078 -0.480561 -1.058264
H -5.136296 -1.289869 0.539460
H -2.814052 1.783885 1.015762
P 1.960469 -0.129033 0.036309
C 5.096108 -0.248632 0.079620
C 4.376761 -1.420353 -0.224156
C 2.981123 -1.500283 -0.279356
C 3.076959 1.160002 0.376983
C 4.465533 0.976076 0.363491
H 6.195620 -0.292472 0.095283
H 4.948715 -2.339510 -0.437396
H 2.465197 -2.438227 -0.535717
H 2.655368 2.148164 0.618348
H 5.102487 1.847127 0.593784
C -0.196444 1.859073 -0.036726
N -0.175334 3.059820 -0.052062
C 0.015622 4.372641 -0.540378
H 0.215486 4.373923 -1.634188
H 0.874413 4.857240 -0.029160
H -0.881065 4.998106 -0.348043
N -0.394226 -2.140853 0.050234
O 0.211969 -2.860011 -0.759417
O -1.152192 -2.639508 0.908099
