29

Ir -0.152220 0.177046 0.015174
N 1.971442 0.128433 0.056264
C 2.642775 -0.850270 0.711892
C 4.044226 -0.887274 0.706486
N 4.795041 0.012272 0.053915
C 4.120373 0.970712 -0.599988
C 2.721655 1.044705 -0.604349
H 2.047930 -1.601989 1.246223
H 4.568619 -1.686917 1.257283
H 4.708503 1.723428 -1.152889
H 2.183504 1.838391 -1.141631
P -2.449170 0.043944 -0.013063
C -3.158710 -0.647281 1.534181
C -3.137400 -1.022154 -1.345327
C -3.350359 1.634318 -0.240249
H -2.690940 -1.640071 1.676545
H -4.261274 -0.740755 1.461110
H -2.890021 0.010392 2.383114
H -2.735034 -2.043308 -1.207785
H -2.814536 -0.631326 -2.329313
H -4.244810 -1.039194 -1.293189
H -3.088927 2.332355 0.578247
H -4.445452 1.463159 -0.241562
H -3.048305 2.096174 -1.200210
C -0.219778 2.018673 0.180099
O -0.278991 3.184386 0.277701
N -0.101729 -1.939852 -0.209619
O -0.984543 -2.668254 0.290450
O 0.830945 -2.434456 -0.864247
