52

Ir -0.004348 -0.193116 0.007695
P 2.332854 -0.253173 -0.035684
C 3.063903 0.808157 -1.375732
C 3.051084 -1.931849 -0.373844
C 2.811120 -2.958336 0.737198
C 3.252427 0.289821 1.489050
C 3.022762 1.742529 1.910999
C 2.505770 0.475423 -2.762080
H 2.807553 1.852704 -1.098561
H 4.172380 0.722054 -1.340070
H 2.561607 -2.274228 -1.308384
H 4.134169 -1.793085 -0.589158
H 2.916463 -0.400208 2.290765
H 4.332715 0.084129 1.317840
H 1.721445 -3.081187 0.888096
H 3.238677 -3.941031 0.450119
H 3.285299 -2.662225 1.695253
H 3.393038 2.459408 1.149656
H 1.947287 1.954535 2.069585
H 3.561046 1.961658 2.855812
H 2.805334 -0.539190 -3.094558
H 1.396104 0.503699 -2.743271
H 2.867846 1.196439 -3.523357
P -2.343312 -0.235784 0.060386
C -3.127085 -1.897887 0.332024
C -3.225313 0.403991 -1.448812
C -2.763280 1.787278 -1.911606
C -3.050284 0.803038 1.429573
C -2.516600 0.414030 2.810597
C -2.903457 -2.903197 -0.801852
H -2.672843 -2.279738 1.269870
H -4.208212 -1.727181 0.535095
H -3.035025 -0.346492 -2.243995
H -4.318121 0.384754 -1.240429
H -2.755474 1.846646 1.190217
H -4.160079 0.749726 1.380207
H -1.677339 1.777662 -2.134830
H -3.305295 2.098254 -2.828008
H -2.938173 2.566016 -1.141230
H -2.837847 -0.605255 3.107170
H -1.407140 0.429137 2.809003
H -2.877687 1.117247 3.588643
H -3.371583 -2.573055 -1.751872
H -1.815735 -3.038286 -0.960066
H -3.352813 -3.883299 -0.540343
C -0.021223 1.628102 0.195837
N -0.053382 2.832836 0.407729
C -0.030408 4.072794 -0.301163
H 0.872871 4.661652 -0.030075
H -0.910235 4.695367 -0.030537
H -0.033933 3.934932 -1.406018
F 0.012501 -2.208941 -0.221205
