28

Ir 0.043115 -0.286951 -0.000022
As 2.492846 -0.221567 0.000085
C 3.435931 -1.937735 0.000170
C 3.271537 0.712041 1.529664
C 3.271720 0.711959 -1.529456
H 3.137811 -2.510637 0.898817
H 4.532025 -1.781061 -0.000038
H 3.137504 -2.510884 -0.898216
H 3.008349 0.164040 2.453941
H 2.816228 1.719912 1.563318
H 4.371831 0.779776 1.423764
H 3.008676 0.163889 -2.453734
H 4.371997 0.779726 -1.423405
H 2.816381 1.719812 -1.563257
P -2.233536 -0.171800 -0.000010
C -5.365465 -0.055973 0.000138
C -4.645032 1.153217 0.000331
C -3.247922 1.237261 0.000292
C -3.352232 -1.501443 -0.000201
C -4.740473 -1.316174 -0.000113
H -6.465203 -0.013794 0.000185
H -5.215279 2.097612 0.000531
H -2.735835 2.212225 0.000453
H -2.932037 -2.519683 -0.000396
H -5.380300 -2.214710 -0.000245
C 0.017250 -2.115719 -0.000053
O 0.015499 -3.289550 -0.000127
Br 0.212892 2.253987 -0.000179
