30

Ir 0.001643 0.110370 0.023038
N 2.057933 0.077032 0.040659
C 4.878285 -0.011645 0.049362
C 4.126368 -0.842287 0.891923
C 2.730156 -0.775102 0.864043
C 2.789712 0.881593 -0.778092
C 4.186208 0.864951 -0.800163
H 5.978061 -0.046198 0.053151
H 4.610193 -1.551365 1.579016
H 2.102156 -1.419591 1.493669
H 2.209638 1.547025 -1.431794
H 4.718557 1.537701 -1.488015
N -2.055601 0.065055 0.017035
C -4.874674 -0.047241 0.043630
C -4.129985 -0.802326 -0.873205
C -2.734047 -0.725061 -0.861313
C -2.780046 0.798646 0.906745
C -4.176019 0.767133 0.947880
H -5.974081 -0.091800 0.054414
H -4.619174 -1.459716 -1.606399
H -2.111057 -1.313560 -1.548241
H -2.195789 1.421267 1.597954
H -4.702476 1.380107 1.693693
C -0.012413 1.952506 0.115445
N -0.037621 3.156910 0.265300
C -0.045540 4.436002 -0.356527
H 0.832178 5.033599 -0.029943
H -0.951903 5.006641 -0.061789
H -0.027254 4.365823 -1.467071
Br 0.014383 -2.428126 -0.107769
