30

Ir 0.260647 -0.363828 0.036820
N 2.317661 0.065432 0.015438
C 2.780755 1.264733 0.458121
C 4.149194 1.561816 0.431458
N 5.078058 0.705868 -0.023368
C 4.609088 -0.473743 -0.461722
C 3.250038 -0.808245 -0.449517
H 2.024996 1.979100 0.814556
H 4.496868 2.542486 0.799947
H 5.343114 -1.202248 -0.847983
H 2.887931 -1.782858 -0.805888
As -2.120887 -0.623151 0.013037
C -2.840076 -2.439351 0.111351
C -2.980401 0.114200 -1.581986
C -3.071686 0.313692 1.443333
H -2.400963 -3.043067 -0.705147
H -3.943564 -2.422869 0.024119
H -2.546909 -2.887807 1.079599
H -2.544819 -0.360458 -2.480920
H -2.779959 1.203072 -1.607970
H -4.072503 -0.066489 -1.544446
H -2.676844 -0.019412 2.421292
H -4.157183 0.103587 1.378261
H -2.891795 1.400280 1.325947
C 0.525993 -2.183306 0.063370
N 0.692558 -3.393060 -0.047381
H 0.793583 -4.088483 0.695684
N -0.145816 1.647979 -0.012052
C -0.795530 2.659667 -0.087151
S -1.685873 3.998977 -0.181527
