33

Ir 0.059009 -0.456174 0.025511
P 2.329661 -0.904974 -0.011718
C 3.269400 -0.140813 1.376529
C 3.173357 -0.223861 -1.500845
C 2.852699 -2.669670 0.022472
H 3.115158 0.955840 1.347375
H 4.352437 -0.365688 1.294115
H 2.878848 -0.525690 2.338111
H 3.004400 0.870586 -1.529532
H 2.728574 -0.673424 -2.409291
H 4.262624 -0.431497 -1.472517
H 2.500570 -3.132989 0.964508
H 3.955360 -2.761307 -0.045963
H 2.377240 -3.205884 -0.821415
As -2.261056 0.307694 -0.005508
C -2.731666 1.319334 -1.615803
C -2.722783 1.581125 1.409402
C -3.703458 -1.012638 0.109347
H -2.002318 2.145316 -1.719236
H -3.760513 1.723536 -1.544644
H -2.643786 0.653676 -2.495186
H -1.987687 2.407522 1.369755
H -2.637051 1.075425 2.389777
H -3.749523 1.972999 1.271749
H -3.561067 -1.763479 -0.691031
H -4.693359 -0.527612 0.005279
H -3.638674 -1.525249 1.088129
C -0.414370 -2.237614 0.018033
N -0.725093 -3.417278 -0.106716
H -0.904703 -4.100331 0.632730
N 0.598835 1.518479 0.024776
C 1.164093 2.579937 0.013359
S 1.943116 3.991945 -0.000057
