66

Ir 0.970891 -0.140798 -0.030087
P 3.294041 -0.249756 -0.001009
C 4.151992 -0.711632 -1.589646
C 3.954026 -1.473578 1.227596
C 3.473921 -1.208448 2.656393
C 4.190584 1.319783 0.462389
C 4.191551 2.407882 -0.614814
C 3.829853 -2.095692 -2.153178
H 3.857194 0.075236 -2.315028
H 5.244253 -0.591251 -1.409758
H 3.573344 -2.454955 0.876383
H 5.063731 -1.482687 1.152944
H 3.686660 1.685322 1.380871
H 5.229937 1.044355 0.746539
H 2.365047 -1.194141 2.689061
H 3.831099 -2.001093 3.345318
H 3.838695 -0.236698 3.048925
H 4.812600 2.124975 -1.488228
H 3.166615 2.614082 -0.982475
H 4.602872 3.356535 -0.212480
H 4.155215 -2.906532 -1.471288
H 2.740853 -2.222879 -2.305689
H 4.347465 -2.243715 -3.123450
P -1.367799 -0.118306 -0.031419
C -2.233930 -2.764335 -0.339575
C -2.299733 -1.463427 -0.886471
C -2.053080 1.421970 -0.808974
C -1.444530 1.861280 -2.005993
C -1.896880 3.023817 -2.647824
C -2.948743 3.772921 -2.091062
C -3.546914 3.349026 -0.893924
C -3.105924 2.176436 -0.256634
C -2.120242 -0.130713 1.659381
C -1.318736 0.262094 2.750985
C -1.857447 0.293779 4.046634
C -3.195690 -0.072542 4.263806
C -3.996006 -0.474667 3.181149
C -3.462493 -0.505951 1.883338
C -3.036734 -1.247469 -2.068019
C -3.701352 -2.315861 -2.692315
C -3.639108 -3.605126 -2.141711
C -2.905691 -3.824543 -0.963687
H -1.647947 -2.945066 0.572631
H -0.593760 1.289228 -2.411841
H -1.418441 3.352426 -3.583551
H -3.298489 4.690450 -2.589256
H -4.365780 3.934933 -0.448239
H -3.579908 1.855024 0.682797
H -0.263136 0.520561 2.563547
H -1.223153 0.596866 4.894028
H -3.615359 -0.054214 5.281674
H -5.042901 -0.772071 3.348502
H -4.088661 -0.834617 1.039295
H -3.099761 -0.239621 -2.504269
H -4.275854 -2.134238 -3.613877
H -4.162748 -4.441036 -2.630979
H -2.847730 -4.834202 -0.528477
C 0.916662 1.755879 0.201588
N 0.828228 2.933717 0.433604
C 0.520976 4.289700 0.182894
H -0.368116 4.374257 -0.480166
H 1.374989 4.805410 -0.308944
H 0.302435 4.830019 1.128064
C 1.004434 -2.170344 -0.179883
C 1.058153 -3.410896 -0.229608
H 1.075420 -4.490337 -0.291657
