44

Ir -0.045031 0.054480 -0.062705
C -2.090663 -0.176063 0.003466
C -4.364135 0.146582 0.526187
C -4.209354 -1.160510 -0.267810
H -4.926222 0.018075 1.474742
H -4.889254 -1.224832 -1.142927
C -2.248615 -2.132172 -1.529287
H -2.842582 -2.225179 -2.463752
H -1.208579 -1.845710 -1.774432
H -2.229541 -3.118072 -1.014255
C -2.646947 1.667450 1.584584
H -3.120267 1.586916 2.586698
H -1.546093 1.701242 1.698645
H -2.994404 2.615513 1.110225
N -2.970180 0.516505 0.778803
N -2.807038 -1.101429 -0.685473
H -4.385369 -2.063208 0.363602
H -4.877045 0.943715 -0.063444
C 2.015996 0.112225 -0.057278
C 4.232925 0.744701 0.425848
C 4.243514 -0.585199 -0.343579
H 4.626111 1.592578 -0.184646
H 4.540455 -1.445827 0.300762
C 2.423928 -1.833024 -1.565996
H 2.545282 -2.801726 -1.031726
H 1.354411 -1.697835 -1.812125
H 3.021756 -1.860905 -2.502078
C 2.343631 2.035472 1.494682
H 2.547554 3.015805 1.002780
H 1.251394 1.919446 1.634158
H 2.845004 2.033946 2.486289
N 2.805409 0.928825 0.694341
N 2.841153 -0.718260 -0.745948
H 4.917175 -0.576272 -1.225608
H 4.819221 0.709796 1.367686
C -0.175370 1.774069 -0.727147
N -0.250746 2.889883 -1.211948
C -0.329530 4.269371 -0.867825
H -0.417301 4.901100 -1.775871
H 0.576255 4.606703 -0.313187
H -1.213476 4.484010 -0.223966
N 0.125448 -1.848588 0.714633
C 0.587196 -2.908328 1.058617
O 1.021144 -3.982526 1.389135
