27

Ir -0.287283 0.061203 -0.025546
N -2.400897 -0.003020 0.010551
C -4.658389 -0.738861 0.017130
O -4.524516 0.686253 0.328847
C -3.218395 0.951781 0.325084
C -3.219763 -1.198482 -0.302377
H -3.062237 -1.469817 -1.365470
H -2.870949 -2.056774 0.302442
H -5.366024 -0.832007 -0.829074
H -5.094984 -1.231538 0.909321
H -2.916339 1.977199 0.584106
P 1.934919 -0.020861 0.009010
C 5.064634 -0.158874 0.090780
C 4.335825 -1.362248 0.034002
C 2.939341 -1.438670 -0.007093
C 3.060067 1.301554 0.081618
C 4.446403 1.104440 0.114271
H 6.163567 -0.208620 0.120252
H 4.899300 -2.310595 0.021603
H 2.422651 -2.410425 -0.047209
H 2.645119 2.320995 0.110594
H 5.091760 1.997916 0.163612
C -0.283660 1.948403 -0.151911
N -0.302417 3.163692 -0.175255
H -0.241164 3.865562 -0.912907
C -0.306204 -1.987804 0.000536
N -0.344788 -3.169111 0.012080
