36

Ir 0.267968 0.129513 -0.004638
P -2.011182 -0.073811 -0.008865
C -2.801159 -0.581294 1.600511
C -2.619632 -1.334238 -1.226588
C -2.263379 -1.000124 -2.676895
C -2.991501 1.446379 -0.454298
C -3.066139 2.530249 0.624732
C -2.489769 -1.996117 2.091126
H -2.455294 0.171602 2.339304
H -3.897064 -0.430998 1.475889
H -2.126050 -2.278947 -0.918522
H -3.716210 -1.450407 -1.081782
H -2.522934 1.846476 -1.377254
H -4.010582 1.098748 -0.732806
H -1.167872 -0.864174 -2.783433
H -2.577527 -1.819233 -3.355429
H -2.755986 -0.070226 -3.028021
H -3.606234 2.180511 1.527081
H -2.061006 2.872647 0.937950
H -3.609284 3.417032 0.239195
H -2.897302 -2.767241 1.406847
H -1.398300 -2.168675 2.161414
H -2.943896 -2.162744 3.089410
N 2.394587 0.133304 0.014313
C 4.650529 -0.555828 -0.165653
O 4.506245 0.705530 0.563755
C 3.190603 0.932303 0.646630
C 3.238168 -0.841812 -0.711858
H 2.861500 -1.862922 -0.507185
H 3.136426 -0.651375 -1.800595
H 5.002311 -1.317595 0.561016
H 5.424487 -0.411323 -0.943114
H 2.870272 1.798987 1.242990
C 0.207074 1.935003 -0.184324
O 0.207333 3.106147 -0.315766
Cl 0.422660 -2.272301 0.158397
