36

Ir -0.001721 -0.001464 0.002269
As 2.421374 -0.116921 0.027697
C 3.258414 -0.722218 -1.635078
C 3.210973 -1.322220 1.353847
C 3.385392 1.559852 0.378118
H 2.817212 -1.711524 -1.856302
H 4.357608 -0.795380 -1.518407
H 3.006203 -0.012327 -2.445423
H 2.781162 -2.324114 1.168776
H 2.929704 -0.978020 2.366988
H 4.313592 -1.345506 1.251035
H 3.116943 2.297427 -0.402418
H 4.480402 1.393691 0.372268
H 3.071915 1.955711 1.363061
As -2.425739 -0.098647 -0.010858
C -3.248324 -0.759521 1.637866
C -3.240081 -1.247127 -1.372196
C -3.380679 1.596879 -0.286092
H -2.813557 -1.760106 1.816993
H -4.349382 -0.819083 1.531445
H -2.980597 -0.082361 2.470913
H -2.815475 -2.258287 -1.230703
H -2.968678 -0.866559 -2.374984
H -4.341524 -1.266581 -1.256737
H -3.089697 2.305396 0.513004
H -4.476734 1.439315 -0.264307
H -3.083589 2.023058 -1.263438
C 0.005932 1.880993 0.025908
N 0.008037 3.079614 0.061186
C 0.055584 4.475064 -0.091009
H 0.949095 4.901093 0.415301
H -0.843043 4.957330 0.351414
H 0.102796 4.764887 -1.164393
N -0.008437 -2.122177 -0.038283
O -1.003896 -2.758685 0.372099
O 0.982867 -2.749302 -0.472479
