39

Ir -0.059698 -0.200335 -0.046901
As 2.371163 -0.318028 -0.100514
C 3.256852 0.904100 -1.357648
C 3.227537 -2.033165 -0.552885
C 3.311206 0.139640 1.565396
H 2.964306 0.623174 -2.387349
H 4.359462 0.877472 -1.253957
H 2.875009 1.923126 -1.152694
H 2.885807 -2.354556 -1.555976
H 2.926041 -2.796759 0.190460
H 4.330611 -1.934434 -0.552170
H 2.996057 1.158049 1.863982
H 4.411415 0.106456 1.437671
H 2.998040 -0.568952 2.355666
C -2.084185 -0.152788 -0.039340
C -4.295117 -0.772564 0.432419
C -4.303507 0.379691 -0.585271
H -4.603699 -1.742599 -0.024572
H -4.677853 1.333927 -0.142853
C -2.438551 1.412226 -1.949437
H -2.599857 2.473659 -1.653296
H -1.354549 1.248682 -2.103630
H -2.984579 1.221392 -2.897974
C -2.436466 -1.758288 1.834465
H -2.534695 -2.810045 1.488674
H -1.365634 -1.560905 2.028622
H -3.026326 -1.620006 2.765989
N -2.885999 -0.825498 0.825419
N -2.885093 0.496740 -0.925906
H -4.917280 0.164489 -1.484714
H -4.952221 -0.588657 1.308004
C 0.091067 1.622035 0.232303
N 0.227439 2.840835 0.311920
C 0.369900 3.784458 1.383252
H -0.476607 4.505407 1.384471
H 1.295138 4.386595 1.252307
H 0.410322 3.300574 2.386116
O -0.316309 -2.190909 -0.379319
H 0.533088 -2.634667 -0.549463
