36

Ir -0.212983 0.213233 -0.087259
P -2.542769 0.004949 0.024361
C -3.144973 -0.397158 1.719145
C -3.204312 -1.369878 -1.008865
C -3.568236 1.453991 -0.469657
H -2.566803 -1.263917 2.095530
H -4.230972 -0.622016 1.726890
H -2.934792 0.463107 2.383944
H -2.624541 -2.284260 -0.774060
H -3.035682 -1.125808 -2.075782
H -4.285713 -1.537119 -0.828353
H -3.305837 2.318884 0.170261
H -4.650850 1.235335 -0.372654
H -3.336467 1.721026 -1.519143
C 1.845363 0.108119 -0.059691
C 4.024763 -0.639714 -0.495746
C 4.077760 0.473491 0.567283
H 4.293240 -1.638907 -0.081595
H 4.560150 1.404484 0.188526
C 2.234865 1.646263 1.857613
H 2.579148 2.680200 1.628923
H 1.127461 1.627920 1.894315
H 2.639228 1.350484 2.849011
C 2.125107 -1.529736 -1.916107
H 2.266966 -2.589951 -1.613609
H 1.039784 -1.355681 -2.043955
H 2.656227 -1.350546 -2.875233
N 2.614051 -0.627177 -0.896416
N 2.657649 0.713773 0.838910
H 4.614555 0.170101 1.490284
H 4.688770 -0.447213 -1.364153
C -0.263855 1.947328 -0.719545
O -0.317434 3.048967 -1.120307
N -0.181054 -1.792963 0.637910
O -0.230121 -2.738810 -0.170752
O -0.120703 -1.992777 1.861686
