30

Ir -0.209425 0.101700 -0.045472
N -2.357763 0.004350 0.003508
C -4.542931 0.532919 -0.177007
C -3.254918 0.995176 -0.359376
N -4.406392 -0.755926 0.303500
C -3.080942 -1.045569 0.400781
H -5.165184 -1.392018 0.548062
H -5.517543 1.000681 -0.344660
H -2.913918 1.968835 -0.725083
H -2.642427 -1.988993 0.751876
C 1.780380 0.032547 -0.036675
C 4.024449 0.465149 0.494178
C 3.946979 -0.772680 -0.413549
H 4.459818 1.349164 -0.030374
H 4.164253 -1.715754 0.141813
C 2.044159 -1.729721 -1.778012
H 2.006251 -2.745133 -1.326638
H 1.011946 -1.440751 -2.054573
H 2.686770 -1.748059 -2.683421
C 2.220127 1.725390 1.743643
H 2.471602 2.744367 1.369847
H 1.124485 1.653450 1.886357
H 2.729391 1.571765 2.718658
N 2.615247 0.700647 0.806509
N 2.548358 -0.750507 -0.840998
H 4.635706 -0.723310 -1.282081
H 4.617957 0.294374 1.416027
C -0.197143 1.818268 -0.639691
O -0.177436 2.939941 -1.003892
Cl -0.150646 -2.158698 0.813724
