26

Ir -0.111033 0.075449 -0.037684
N -2.170119 0.042908 -0.028422
C -4.431935 -0.654742 0.123092
O -4.295098 0.799568 0.143417
C -2.981614 1.047313 0.122972
C -3.016913 -1.165862 -0.196705
H -2.905240 -1.528982 -1.239695
H -2.643048 -1.962258 0.476550
H -5.195529 -0.915010 -0.634340
H -4.793894 -0.967159 1.125041
H -2.673721 2.097335 0.224219
N 1.951595 0.030155 -0.009954
C 4.772440 -0.062859 0.063776
C 4.036672 -1.010899 -0.659412
C 2.639863 -0.939888 -0.674840
C 2.669670 0.951334 0.691294
C 4.064514 0.935344 0.751244
H 5.871917 -0.097505 0.090203
H 4.533239 -1.815574 -1.220658
H 2.023260 -1.678277 -1.202664
H 2.083474 1.716983 1.217386
H 4.582300 1.707096 1.338643
C -0.110863 1.896982 -0.298298
O -0.120982 3.064319 -0.450746
S -0.045630 -2.314812 0.417354
H -0.595818 -2.732125 -0.762150
