30

Ir -0.201138 -0.147721 -0.051854
As 2.185625 -0.079953 0.026412
C 2.902248 0.270681 1.812084
C 3.054642 1.305539 -1.049513
C 3.149484 -1.698928 -0.513714
H 2.431827 1.214264 2.146112
H 4.005606 0.364860 1.784635
H 2.602814 -0.553124 2.487061
H 2.654969 2.280271 -0.712428
H 2.799193 1.150054 -2.114617
H 4.152857 1.268294 -0.911190
H 2.775036 -2.554006 0.080277
H 4.237924 -1.573155 -0.354194
H 2.949189 -1.896022 -1.584263
N -2.295669 -0.058827 0.025645
C -4.574851 -0.532986 0.482812
O -4.396166 0.670416 -0.324112
C -3.081410 0.819092 -0.514191
C -3.136699 -1.040996 0.739914
H -2.943694 -2.055712 0.337647
H -2.856741 -1.051396 1.812100
H -5.202930 -1.237894 -0.097997
H -5.119567 -0.243432 1.403273
H -2.710910 1.693170 -1.075123
C -0.193156 -1.989575 -0.228337
N -0.169754 -3.212561 -0.274378
H -0.218938 -3.834802 -1.083396
N -0.140346 1.991094 0.031465
O -0.871719 2.686815 -0.698915
O 0.683408 2.543603 0.791752
