32

Ir -0.176092 0.133157 -0.055917
P -2.508067 -0.056835 0.045301
C -3.149365 -0.348736 1.747731
C -3.161167 -1.499254 -0.896867
C -3.520455 1.358209 -0.566021
H -2.601756 -1.223251 2.150918
H -4.241978 -0.538971 1.749201
H -2.919312 0.531883 2.378254
H -2.608512 -2.390246 -0.539035
H -2.943267 -1.357660 -1.973237
H -4.252059 -1.631246 -0.746867
H -3.265688 2.264726 0.017044
H -4.606326 1.152729 -0.476296
H -3.266291 1.553643 -1.626141
C 1.877032 0.034389 -0.037630
C 4.002951 -0.663313 -0.438258
C 4.067038 0.328967 0.505902
H 4.793067 -1.263076 -0.900201
H 4.923333 0.769594 1.025203
C 2.372073 1.779481 1.676819
H 2.681734 2.778577 1.308339
H 1.269045 1.745675 1.767985
H 2.833245 1.591290 2.666034
C 2.130860 -1.810294 -1.690843
H 1.622795 -2.616464 -1.126279
H 1.379320 -1.323794 -2.341217
H 2.957757 -2.217228 -2.301936
N 2.663594 -0.822723 -0.759664
N 2.761387 0.739150 0.737325
C -0.222653 1.797504 -0.788096
O -0.270825 2.877188 -1.255979
Cl -0.162420 -2.089467 0.924830
