31

Ir 0.150838 0.007923 -0.021331
P -2.086664 -0.147922 0.024663
C -2.653685 -1.320294 1.329905
C -2.863425 -0.829361 -1.510023
C -3.070371 1.377234 0.329350
H -2.033011 -2.232205 1.228482
H -3.733403 -1.558383 1.244327
H -2.439793 -0.876738 2.321484
H -2.404663 -1.810930 -1.740339
H -2.647965 -0.145137 -2.353256
H -3.959946 -0.954095 -1.395472
H -2.752327 1.822577 1.291580
H -4.155674 1.153281 0.359620
H -2.861697 2.111760 -0.472339
N 2.396867 -0.161183 0.025811
C 3.079300 1.145852 0.123302
C 2.740449 -0.999784 1.199988
C 2.809269 -0.855661 -1.216655
H 2.439490 -0.472091 2.124436
H 3.837361 -1.199498 1.227057
H 2.175456 -1.947689 1.123504
H 2.546043 -0.229116 -2.089659
H 2.249423 -1.807740 -1.271307
H 3.908506 -1.045437 -1.211604
H 2.753762 1.667564 1.042151
H 2.812262 1.772449 -0.747661
H 4.185690 1.009223 0.151106
C 0.093635 1.834601 -0.018133
O 0.019163 3.012373 -0.043680
O 0.297186 -2.031606 -0.027873
H -0.353935 -2.482408 -0.594199
