30

Ir -0.145213 0.120016 -0.035289
C -2.198455 0.024302 -0.024508
C -4.379446 0.246146 0.565136
C -4.323819 -0.592767 -0.518197
H -5.231118 0.606999 1.149371
H -5.118483 -1.111852 -1.062501
C -2.461236 -1.555449 -1.932275
H -1.730247 -0.977294 -2.528489
H -1.933461 -2.421472 -1.487156
H -3.296641 -1.889242 -2.574737
C -2.674425 1.494884 1.937587
H -1.571323 1.450140 2.018792
H -2.988293 2.537638 1.729341
H -3.128799 1.154199 2.888153
N -3.071393 0.611451 0.850614
N -2.986869 -0.710009 -0.865507
P 2.152088 0.013121 0.008799
C 5.284772 -0.171296 0.068533
C 4.690513 1.054228 -0.283439
C 3.306761 1.263529 -0.345945
C 3.135837 -1.363095 0.403899
C 4.534187 -1.317158 0.394586
H 6.383275 -0.237038 0.089629
H 5.352907 1.902718 -0.525157
H 2.911905 2.251983 -0.630549
H 2.591742 -2.283948 0.666800
H 5.081538 -2.237867 0.659463
C -0.127163 1.868703 -0.567935
O -0.113334 2.994188 -0.904119
Cl -0.225507 -2.185811 0.667344
