30

Ir 0.000022 0.106806 0.000077
P 2.307414 -0.186289 0.000061
C 2.823442 -1.208300 -1.439807
C 2.822214 -1.213232 1.436813
C 3.442004 1.260790 0.002791
H 2.147869 -2.086669 -1.437821
H 3.882497 -1.529712 -1.367902
H 2.661320 -0.639054 -2.375216
H 2.145273 -2.090549 1.431961
H 2.660815 -0.646604 2.373936
H 3.880840 -1.535811 1.363956
H 3.236652 1.880287 -0.892012
H 4.505538 0.946996 0.002311
H 3.236496 1.876989 0.899830
P -2.307345 -0.186536 -0.000046
C -2.822890 -1.210661 1.438464
C -2.822254 -1.211475 -1.438201
C -3.442053 1.260444 -0.000592
H -2.146685 -2.088542 1.435356
H -3.881737 -1.532644 1.366083
H -2.661187 -0.642494 2.374601
H -2.145647 -2.089051 -1.434406
H -2.660500 -0.643695 -2.374564
H -3.880997 -1.533814 -1.365950
H -3.236984 1.878402 0.895340
H -4.505560 0.946560 -0.000935
H -3.236354 1.878230 -0.896497
C -0.000367 1.922878 0.000027
O -0.000838 3.101413 -0.000133
F 0.000196 -1.932719 -0.000012
