32

Ir -0.395552 0.078730 0.012478
As 1.962439 -0.022430 -0.004546
C 2.979247 1.652192 0.030746
C 2.706837 -0.948900 -1.560835
C 2.750416 -1.038314 1.472614
H 2.658462 2.284262 -0.818693
H 4.065248 1.446735 -0.035432
H 2.755880 2.186669 0.973647
H 2.424197 -0.397859 -2.477483
H 2.251457 -1.957227 -1.589211
H 3.809359 -1.023069 -1.483269
H 2.491973 -0.544583 2.428297
H 3.850558 -1.103564 1.361150
H 2.296649 -2.047604 1.453155
N -2.627336 -0.120935 -0.011211
C -3.321536 1.187215 -0.007317
C -3.008685 -0.863596 -1.239927
C -3.046489 -0.892649 1.186557
H -2.671498 -0.297273 -2.127754
H -4.115224 -0.996536 -1.281819
H -2.514357 -1.851821 -1.240065
H -2.734838 -0.349333 2.097838
H -2.553258 -1.881334 1.177840
H -4.153950 -1.024010 1.192341
H -3.010809 1.777883 -0.888023
H -3.049805 1.748690 0.905028
H -4.426177 1.039895 -0.031470
C -0.385062 1.955348 0.016452
N -0.330042 3.170664 -0.088963
H -0.286383 3.919040 0.603072
C -0.275595 -1.974078 0.021710
N -0.154802 -3.151771 0.021615
