42

Ir -0.198070 0.042177 -0.012852
N -2.313573 -0.130298 -0.030708
C -2.911070 -1.198723 -0.619352
C -4.306519 -1.322338 -0.637862
N -5.131177 -0.418969 -0.083964
C -4.528594 0.628478 0.502343
C -3.138162 0.787652 0.536367
H -2.236383 -1.953771 -1.047986
H -4.766921 -2.197799 -1.128005
H -5.174886 1.388287 0.975644
H -2.663042 1.656389 1.013881
P 2.089511 0.042841 0.014107
C 2.932692 1.671128 0.345708
C 2.937899 -0.532439 -1.540178
C 2.542897 -1.922201 -2.042197
C 2.811308 -1.057064 1.327756
C 2.307558 -0.737666 2.737136
C 2.938732 2.655007 -0.827755
H 2.399848 2.105581 1.216489
H 3.970104 1.447310 0.676015
H 2.696199 0.232668 -2.307034
H 4.032290 -0.463586 -1.348942
H 2.547624 -2.098285 1.050739
H 3.917947 -0.973148 1.255061
H 1.458101 -1.970006 -2.258123
H 3.095143 -2.163740 -2.973185
H 2.765461 -2.721093 -1.306912
H 2.586300 0.287121 3.057841
H 1.202380 -0.813849 2.780309
H 2.734534 -1.446644 3.475136
H 3.604653 2.317879 -1.646890
H 1.925168 2.789291 -1.255038
H 3.301121 3.650740 -0.499791
C -0.283538 1.887820 0.091087
N -0.380388 3.081773 0.295572
C -0.413382 4.386110 -0.272799
H 0.515712 4.942726 -0.023952
H -1.262251 4.970902 0.139463
H -0.514526 4.359323 -1.380579
N -0.142461 -2.012791 -0.026196
C 0.327083 -3.111791 0.163124
O 0.780739 -4.209795 0.331333
