31

Ir -0.096101 -0.025581 0.032062
N -2.148213 -0.016019 0.031225
C -4.434032 -0.632573 -0.162813
O -4.258676 0.700409 0.410037
C -2.938982 0.893224 0.513186
C -3.009384 -1.078041 -0.549806
H -2.834153 -1.115910 -1.643910
H -2.722428 -2.051655 -0.111074
H -5.135158 -0.545669 -1.015381
H -4.893176 -1.271232 0.619440
H -2.604474 1.825914 0.987846
N 1.957097 -0.122694 0.068567
C 4.775674 -0.254481 0.112512
C 4.023204 -1.106312 -0.708624
C 2.628022 -1.015133 -0.712505
C 2.688584 0.701189 0.872664
C 4.083466 0.663481 0.917681
H 5.874805 -0.304802 0.127901
H 4.506556 -1.850408 -1.358268
H 1.986915 -1.688261 -1.305301
H 2.109963 1.403162 1.488615
H 4.615147 1.353998 1.588383
C -0.046335 1.840641 -0.058290
N -0.033585 3.049831 -0.087195
C 0.124134 4.269239 -0.798075
H 0.314257 4.096186 -1.880076
H 0.972666 4.854169 -0.384123
H -0.784867 4.899426 -0.699273
N -0.199143 -2.148035 0.044752
O 0.345835 -2.851738 -0.828912
O -0.887844 -2.681692 0.938808
