29

Ir 0.327428 -0.339370 0.021937
N 2.434553 0.249139 -0.029060
C 3.112089 -0.247909 1.200144
C 3.085908 -0.349050 -1.226566
C 2.618924 1.725766 -0.092646
H 3.019271 -1.450729 -1.180760
H 4.157475 -0.047230 -1.270817
H 2.564531 -0.000547 -2.136367
H 2.151815 2.198769 0.788263
H 2.128805 2.124287 -0.997581
H 3.706020 1.961088 -0.115998
H 3.045964 -1.349559 1.247512
H 2.609434 0.174923 2.088723
H 4.183816 0.056370 1.196517
N -1.657004 -0.789827 0.053466
C -3.751049 -1.840731 -0.326982
O -3.879809 -0.552852 0.343286
C -2.645461 -0.056100 0.472212
C -2.227612 -2.062227 -0.444358
H -1.884871 -2.238269 -1.482148
H -1.851928 -2.897345 0.181344
H -4.263576 -1.761132 -1.307103
H -4.271179 -2.599028 0.289991
H -2.548299 0.945463 0.912449
C 0.802234 -2.104106 0.090766
O 1.105120 -3.242941 0.136866
N -0.245356 1.605005 -0.047293
C -0.708086 2.715211 -0.065536
S -1.325549 4.202839 -0.076650
