34

Ir 0.180686 -0.217122 -0.023708
N 2.295684 -0.044908 -0.067549
C 4.508459 0.774815 0.167882
O 4.474702 -0.630072 -0.234029
C 3.178356 -0.971302 -0.264925
C 3.039339 1.228433 0.087835
H 2.821830 1.868355 -0.792871
H 2.662932 1.766512 0.978333
H 5.191702 1.310432 -0.518594
H 4.924840 0.816137 1.196510
H 2.945410 -2.027377 -0.463865
C -1.817853 -0.173939 -0.020330
C -3.980005 0.351036 -0.735809
C -4.042937 -0.137603 0.720444
H -4.141760 1.451563 -0.815415
H -4.523567 -1.140805 0.812728
C -2.197258 -0.546636 2.410985
H -2.581046 -1.543756 2.727753
H -1.088676 -0.560178 2.414637
H -2.556940 0.214032 3.136294
C -2.101543 0.368642 -2.425554
H -2.078623 1.470116 -2.569569
H -1.062280 -0.007681 -2.498591
H -2.733443 -0.105862 -3.205188
N -2.601337 0.029655 -1.110176
N -2.625264 -0.219453 1.072287
H -4.585511 0.559524 1.391880
H -4.710829 -0.152915 -1.401148
C 0.250753 -2.064956 -0.124846
N 0.300744 -3.281169 -0.263765
H 0.363618 -4.003161 0.457573
N 0.007751 1.903118 0.221530
O -0.703556 2.552223 -0.568881
O 0.550432 2.468076 1.192240
