29

Ir -0.153418 0.066510 0.015362
N 1.974557 -0.023343 0.001155
C 2.644062 -1.152741 0.355457
C 4.044235 -1.200739 0.328994
N 4.808536 -0.162473 -0.044726
C 4.138877 0.945796 -0.399347
C 2.741751 1.032250 -0.380427
H 2.033025 -2.021612 0.640096
H 4.558074 -2.131491 0.625488
H 4.732571 1.820228 -0.718403
H 2.216689 1.953589 -0.668517
P -2.430805 -0.059529 -0.032877
C -3.155662 -1.083178 1.314991
C -3.076390 -0.854474 -1.562903
C -3.380312 1.516133 0.067043
H -2.703818 -2.092434 1.256302
H -4.258129 -1.149782 1.215216
H -2.893250 -0.636268 2.293201
H -2.627540 -1.863972 -1.637327
H -2.759691 -0.261799 -2.442518
H -4.182616 -0.928186 -1.535987
H -3.151737 2.020159 1.025979
H -4.470104 1.324252 0.002194
H -3.068943 2.184711 -0.758496
C -0.165341 1.942520 0.183656
N -0.181902 3.160164 0.204175
H -0.213818 3.854079 0.951184
C -0.241779 -1.980732 -0.095809
N -0.348635 -3.158458 -0.133190
