29

Ir 0.103967 -0.137219 0.025798
N -1.930997 -0.176676 0.002753
C -2.630219 -1.068080 -0.760896
C -4.030006 -1.091593 -0.742210
N -4.778906 -0.258373 -0.002182
C -4.081716 0.615100 0.746436
C -2.686106 0.669701 0.764779
H -2.030049 -1.770763 -1.355156
H -4.559862 -1.828017 -1.371450
H -4.655647 1.316659 1.376928
H -2.140980 1.390001 1.389298
N 2.150333 -0.186862 0.050212
C 4.437913 0.255535 -0.380818
O 4.247881 -0.888317 0.501515
C 2.923995 -1.061584 0.621957
C 3.023245 0.848636 -0.546334
H 2.736166 1.018727 -1.601421
H 2.872870 1.800495 0.004201
H 4.868434 -0.121161 -1.332123
H 5.165806 0.939488 0.096568
H 2.556927 -1.935762 1.179222
C 0.096037 1.729665 0.099310
N 0.088618 2.937353 0.223528
C -0.069412 4.202563 -0.408456
H 0.844926 4.820312 -0.279861
H -0.906521 4.766853 0.054663
H -0.276141 4.105383 -1.497416
S 0.113875 -2.556664 -0.001491
H 1.107849 -2.730954 -0.920954
