34

Ir 0.037916 -0.171633 0.057917
N 2.160668 -0.211707 0.043981
C 2.816658 -1.287675 0.556644
C 4.214898 -1.348187 0.542271
N 4.993698 -0.375827 0.036435
C 4.332607 0.677094 -0.472978
C 2.936698 0.774120 -0.478186
H 2.152003 -2.080657 0.947040
H 4.722418 -2.232367 0.966514
H 4.935222 1.496018 -0.904155
H 2.414826 1.644873 -0.900838
C -1.947196 -0.328330 0.040413
C -4.184850 0.021886 0.342646
C -4.044887 -1.070793 -0.471411
H -5.080752 0.509114 0.739078
H -4.795764 -1.719100 -0.933221
C -2.099543 -2.311499 -1.487709
H -1.917805 -1.919714 -2.509079
H -1.135733 -2.620345 -1.035647
H -2.794745 -3.171159 -1.540298
C -2.609332 1.593579 1.508181
H -1.559064 1.502521 1.844035
H -2.730031 2.549047 0.957268
H -3.287212 1.589141 2.384178
N -2.903124 0.456916 0.651194
N -2.683549 -1.277877 -0.638077
C -0.041897 1.592303 -0.476679
N -0.112731 2.743780 -0.885946
C -0.134105 4.078570 -0.374630
H -1.152163 4.517918 -0.469728
H 0.547156 4.733209 -0.958343
H 0.165685 4.134994 0.696738
O 0.195110 -2.126271 0.657199
H -0.583506 -2.401001 1.174751
