26

Ir 0.313518 -0.161970 0.001428
N 2.438978 -0.128036 -0.056193
C 4.582775 -0.655612 -0.485131
C 3.271440 -1.008947 -0.727303
N 4.521936 0.448474 0.344761
C 3.220292 0.742865 0.590465
H 5.318019 0.967438 0.716829
H 5.528293 -1.086319 -0.827061
H 2.872416 -1.827747 -1.333666
H 2.834294 1.581908 1.185362
P -1.923706 -0.073889 0.000990
C -5.052537 0.028384 0.012961
C -4.419624 -1.204960 0.249940
C -3.030504 -1.383776 0.272915
C -2.941877 1.306583 -0.270418
C -4.338021 1.215706 -0.233955
H -6.152308 0.065924 0.017433
H -5.053537 -2.089355 0.430923
H -2.607260 -2.381505 0.467734
H -2.435759 2.258797 -0.489836
H -4.912817 2.139366 -0.416786
C 0.267598 -2.016259 0.067608
O 0.234624 -3.183764 0.129638
N 0.390389 1.967484 0.001087
O -0.160639 2.610048 -0.903555
O 0.989393 2.547736 0.928192
