35

Ir -0.130933 -0.091723 -0.037679
C -2.181348 -0.139953 0.089359
C -4.305539 -0.131273 0.899998
C -4.376531 -0.371485 -0.448281
H -5.092490 -0.051961 1.655899
H -5.238656 -0.544184 -1.099634
C -2.673105 -0.627101 -2.302731
H -1.989799 0.174187 -2.642762
H -2.121606 -1.587194 -2.351928
H -3.575586 -0.656789 -2.941113
C -2.428293 0.255587 2.539600
H -1.323983 0.283718 2.449475
H -2.798933 1.224106 2.931108
H -2.721947 -0.560575 3.229004
N -2.959220 0.007228 1.207684
N -3.073271 -0.370317 -0.923518
P 2.138852 -0.170532 -0.014777
C 5.288261 -0.271302 0.179446
C 4.674524 0.921756 -0.245283
C 3.290123 1.089724 -0.367710
C 3.153705 -1.495373 0.488055
C 4.550909 -1.417506 0.529569
H 6.386248 -0.306919 0.246518
H 5.323991 1.777680 -0.497371
H 2.883198 2.056033 -0.705397
H 2.639170 -2.419458 0.795407
H 5.106806 -2.309565 0.865795
C -0.115056 1.780016 0.061813
N -0.100755 2.987651 0.168232
C -0.137183 4.234191 -0.517523
H 0.795512 4.808076 -0.330509
H -0.979081 4.857848 -0.148856
H -0.253167 4.107446 -1.617366
S -0.340331 -2.483696 -0.285548
H 0.894624 -2.828303 -0.751243
