23

Ir 0.051545 -0.330617 0.028697
N 2.111880 -0.219833 0.033096
C 4.291946 -0.720268 -0.251749
C 3.003603 -1.188578 -0.405513
N 4.165099 0.544736 0.288020
C 2.843990 0.820202 0.453483
H 4.927392 1.179140 0.525484
H 5.261835 -1.172374 -0.477917
H 2.656360 -2.149327 -0.796140
H 2.429008 1.762477 0.827576
N -1.992733 -0.314581 0.015315
C -4.233765 0.344116 0.377272
O -4.125669 -0.780233 -0.552109
C -2.815268 -0.991127 -0.723478
C -2.808786 0.516549 0.933816
H -2.680790 0.125235 1.964272
H -2.431992 1.557685 0.904692
H -4.997421 0.086480 1.135339
H -4.579696 1.222557 -0.206680
H -2.518449 -1.738550 -1.472309
C 0.083451 -2.139552 0.175978
O 0.078457 -3.315568 0.248523
Br -0.052522 2.212295 -0.225690
