38

Ir -0.114377 0.196788 -0.108559
C -2.163058 -0.062017 0.013762
C -4.381678 0.276456 0.433182
C -4.259204 -0.938278 -0.189079
H -5.263885 0.801737 0.811277
H -5.014590 -1.680587 -0.464236
C -2.351160 -2.278948 -1.130485
H -2.245338 -2.063919 -2.213189
H -1.357776 -2.501702 -0.699488
H -3.022136 -3.147585 -0.991579
C -2.780051 2.075909 1.154927
H -1.762366 2.014660 1.583059
H -2.793626 2.884979 0.396681
H -3.513067 2.303282 1.952131
N -3.098305 0.789999 0.552393
N -2.906742 -1.127537 -0.431499
C 1.947391 0.278813 -0.136165
C 4.161556 0.944849 0.291777
C 4.171639 -0.424293 -0.406608
H 4.547240 1.761062 -0.363983
H 4.475639 -1.248992 0.279516
C 2.341883 -1.741864 -1.544603
H 2.492340 -2.680632 -0.966152
H 1.264759 -1.630895 -1.771084
H 2.917049 -1.808669 -2.492668
C 2.271311 2.286071 1.305445
H 2.463467 3.237718 0.759207
H 1.181083 2.172683 1.460845
H 2.779970 2.337297 2.291588
N 2.734485 1.139965 0.560089
N 2.765664 -0.584635 -0.788717
H 4.836808 -0.459071 -1.294128
H 4.752382 0.960794 1.230988
C -0.276438 1.820122 -0.931542
O -0.361479 2.881963 -1.436415
N 0.131724 -1.623673 0.840220
C 0.765628 -2.537846 1.313233
O 1.360774 -3.476650 1.771390
