29

Ir -0.240417 -0.080118 -0.017877
As 2.120370 0.032689 0.023380
C 2.864379 0.956262 1.583632
C 2.948487 1.028703 -1.447973
C 3.138661 -1.644031 0.010247
H 2.396773 1.958499 1.620942
H 3.966404 1.040772 1.507369
H 2.585729 0.395926 2.496021
H 2.478196 2.030210 -1.466215
H 2.726005 0.510854 -2.400117
H 4.043893 1.112095 -1.304921
H 2.806029 -2.268919 0.860645
H 4.225558 -1.445369 0.084960
H 2.920295 -2.186063 -0.929647
N -2.352726 0.021012 0.006161
C -4.537023 -0.516626 0.138593
C -3.252552 -1.021110 0.160586
N -4.396339 0.848256 -0.031805
C -3.070653 1.142480 -0.108431
H -5.152853 1.529913 -0.088693
H -5.513441 -1.001370 0.230123
H -2.908163 -2.053029 0.279435
H -2.637610 2.143017 -0.229443
C -0.248437 -1.956072 -0.074210
N -0.247034 -3.181792 -0.032482
H -0.198876 -3.842647 -0.811658
C -0.151549 1.973317 -0.027978
C -0.064111 3.213897 -0.034404
H 0.011445 4.293244 -0.037327
