32

Ir 0.397811 -0.091215 -0.000044
As -1.960145 0.020784 -0.000048
C -2.962469 -1.662800 0.000043
C -2.735565 0.976819 -1.522350
C -2.735162 0.976724 1.522525
H -2.683360 -2.246192 -0.897820
H -4.052414 -1.467246 -0.000190
H -2.683694 -2.245919 0.898185
H -2.480414 0.433926 -2.451925
H -2.268768 1.979493 -1.549932
H -3.835235 1.058029 -1.416444
H -2.477584 0.434943 2.452081
H -3.835118 1.056042 1.418249
H -2.269954 1.980182 1.548762
N 2.630839 0.102323 -0.000002
C 3.314108 -1.212656 -0.000043
C 3.035912 0.855706 -1.213624
C 3.035908 0.855758 1.213601
H 2.716888 0.296386 -2.112599
H 4.142965 0.990274 -1.232109
H 2.534396 1.840447 -1.212838
H 2.716353 0.296744 2.112568
H 2.534756 1.840686 1.212380
H 4.143000 0.989897 1.232303
H 3.018653 -1.785841 -0.897658
H 3.019278 -1.785583 0.897950
H 4.420385 -1.075060 -0.000390
C 0.372108 -1.961030 -0.000049
O 0.283815 -3.132521 0.000261
C 0.278445 1.951965 0.000091
C 0.166294 3.189737 0.000139
H 0.089314 4.269021 0.000347
