30

Ir 0.353138 -0.004249 0.022057
N 2.479127 0.134047 0.053000
C 4.674809 -0.329933 0.223565
C 3.405511 -0.868250 0.282903
N 4.494362 1.014153 -0.047119
C 3.163249 1.264368 -0.144407
H 5.231401 1.711511 -0.155127
H 5.664694 -0.777667 0.351320
H 3.092731 -1.898344 0.478295
H 2.696009 2.236768 -0.336953
P -1.861844 -0.045532 0.035826
C -5.003106 -0.120886 0.076037
C -4.298155 -1.332139 0.195706
C -2.901771 -1.431011 0.191658
C -2.966070 1.293933 -0.090680
C -4.355198 1.121128 -0.058021
H -6.103159 -0.144778 0.090375
H -4.879495 -2.263902 0.302359
H -2.417598 -2.413861 0.299695
H -2.547800 2.306785 -0.195337
H -4.980716 2.025892 -0.143516
C 0.403521 -1.861226 0.049605
N 0.446422 -3.069883 0.119487
C 0.414373 -4.318515 -0.560716
H -0.540652 -4.848239 -0.355281
H 1.233486 -4.978703 -0.206240
H 0.513037 -4.196303 -1.661978
N 0.362710 2.051143 -0.069481
C -0.150870 3.145915 -0.118879
O -0.627748 4.245557 -0.171908
