26

Ir -0.008764 0.084969 -0.002010
N -2.052839 0.014736 -0.018931
C -2.717186 -1.036116 -0.577647
C -4.115749 -1.080033 -0.590035
N -4.888758 -0.112240 -0.071232
C -4.225281 0.917612 0.478940
C -2.829243 0.996928 0.518188
H -2.100641 -1.837656 -1.009978
H -4.622475 -1.945439 -1.050922
H -4.824260 1.732611 0.921039
H -2.306648 1.845229 0.980244
N 2.054704 0.019537 -0.024146
C 4.867650 -0.118976 -0.073900
C 4.087940 -1.054057 -0.769288
C 2.693902 -0.957391 -0.726326
C 2.811992 0.925594 0.652126
C 4.208327 0.887570 0.648039
H 5.966483 -0.171354 -0.095077
H 4.548353 -1.863751 -1.353479
H 2.037168 -1.671957 -1.242173
H 2.256066 1.693533 1.207546
H 4.765863 1.647995 1.213359
C 0.006844 1.890225 -0.409312
O 0.037638 3.046026 -0.617976
S -0.066987 -2.228089 0.643450
H 1.198689 -2.372955 1.128230
