52

Ir -1.129711 -0.165790 0.002247
P 1.146632 -0.064101 0.007220
C 1.256903 -1.357045 -2.479481
C 1.935544 -1.165923 -1.256572
C 1.972634 -0.553070 1.590456
C 1.344854 -1.496993 2.429675
C 1.972698 -1.915982 3.612537
C 3.225408 -1.393687 3.973256
C 3.852702 -0.449483 3.144514
C 3.231687 -0.030050 1.957507
C 1.870795 1.593228 -0.350828
C 1.699305 2.616928 0.605902
C 2.151454 3.915570 0.339096
C 2.790193 4.202540 -0.879015
C 2.973888 3.185735 -1.828129
C 2.512852 1.884043 -1.569887
C 3.182761 -1.788940 -1.052921
C 3.743602 -2.589826 -2.060729
C 3.069082 -2.770400 -3.278986
C 1.825234 -2.151151 -3.487142
H 0.271382 -0.883174 -2.620071
H 0.358340 -1.896762 2.151928
H 1.473347 -2.652002 4.261262
H 3.711908 -1.718499 4.906016
H 4.832081 -0.031416 3.424188
H 3.725241 0.716189 1.316310
H 1.194296 2.398995 1.558995
H 1.984722 4.710566 1.080801
H 3.140282 5.224626 -1.090126
H 3.475734 3.404659 -2.783296
H 2.652769 1.094616 -2.323255
H 3.716304 -1.657379 -0.099693
H 4.715159 -3.078669 -1.889689
H 3.511997 -3.399186 -4.066862
H 1.290264 -2.290844 -4.439338
N -3.272390 -0.244360 0.004689
C -6.083532 -0.303902 0.024241
C -5.390335 0.729010 -0.622212
C -3.991314 0.728520 -0.609816
C -3.941945 -1.247017 0.627176
C -5.338498 -1.308278 0.660111
H -7.183837 -0.326987 0.032351
H -5.921854 1.541941 -1.137705
H -3.399363 1.526767 -1.078970
H -3.321083 -2.020596 1.101083
H -5.828136 -2.141618 1.184369
C -1.009460 -1.999301 -0.097676
N -0.958089 -3.224675 -0.035658
H -0.815395 -3.867713 -0.819484
N -1.341524 1.857141 0.102626
C -1.295931 3.057767 0.229753
O -1.269419 4.250414 0.352911
