49

Ir 1.070510 -0.306917 0.046408
P -1.207729 -0.058773 0.020500
C -2.127231 -2.585871 0.843425
C -2.165186 -1.628651 -0.193814
C -1.830651 1.001577 -1.357625
C -1.137942 0.961847 -2.585853
C -1.606685 1.699374 -3.682394
C -2.760263 2.491539 -3.558092
C -3.444561 2.542759 -2.333324
C -2.985005 1.798911 -1.234796
C -1.969334 0.657986 1.549492
C -1.226004 1.559245 2.339095
C -1.803226 2.133743 3.481884
C -3.120201 1.814454 3.849660
C -3.864397 0.916756 3.067301
C -3.293819 0.339012 1.922387
C -2.894392 -1.909634 -1.365447
C -3.573277 -3.132682 -1.497462
C -3.533980 -4.079278 -0.462894
C -2.809952 -3.801908 0.709223
H -1.558145 -2.377006 1.762835
H -0.217824 0.360707 -2.662755
H -1.058841 1.665460 -4.636583
H -3.122026 3.078226 -4.416673
H -4.342410 3.171049 -2.227557
H -3.522949 1.849879 -0.276438
H -0.197369 1.815757 2.041718
H -1.214149 2.836425 4.091181
H -3.567766 2.263518 4.749879
H -4.896971 0.659652 3.349962
H -3.881922 -0.369900 1.320001
H -2.935118 -1.170407 -2.179063
H -4.139084 -3.342708 -2.418217
H -4.067156 -5.036574 -0.568815
H -2.771430 -4.540739 1.524219
N 3.211926 -0.403743 0.066129
C 6.019129 -0.510224 0.089113
C 5.327487 0.394333 0.906608
C 3.929143 0.424241 0.865713
C 3.879487 -1.281513 -0.722795
C 5.275517 -1.360998 -0.742004
H 7.118855 -0.552266 0.098863
H 5.859489 1.084445 1.577093
H 3.342879 1.136481 1.463315
H 3.257344 -1.933167 -1.352854
H 5.764682 -2.087781 -1.406230
C 0.965375 -2.124685 0.184714
O 0.952066 -3.296791 0.257040
Br 1.321039 2.208047 -0.190479
