53

Ir -1.011571 -0.185171 0.012324
P 1.345434 -0.121481 -0.006465
C 1.367796 1.677516 2.135266
C 1.975646 1.365992 0.898678
C 2.070695 0.032850 -1.697650
C 1.273639 0.554354 -2.737471
C 1.814227 0.719931 -4.021919
C 3.147223 0.361099 -4.279485
C 3.942011 -0.167708 -3.248719
C 3.408324 -0.333444 -1.961451
C 2.292997 -1.518601 0.728643
C 2.187024 -2.787812 0.116766
C 2.889167 -3.879931 0.644801
C 3.690666 -3.723090 1.787851
C 3.791825 -2.465509 2.402090
C 3.096526 -1.364549 1.875955
C 3.000015 2.195347 0.402944
C 3.414057 3.319808 1.137636
C 2.817007 3.617844 2.372866
C 1.794163 2.792380 2.871694
H 0.541017 1.046142 2.500334
H 0.222435 0.810029 -2.529024
H 1.184057 1.122697 -4.829671
H 3.566929 0.485012 -5.289806
H 4.984813 -0.458911 -3.448458
H 4.030493 -0.758237 -1.158585
H 1.546622 -2.920389 -0.766482
H 2.799762 -4.865474 0.162847
H 4.236778 -4.584939 2.201530
H 4.419180 -2.334623 3.297227
H 3.187071 -0.381476 2.360974
H 3.472395 1.969560 -0.564786
H 4.211082 3.966336 0.738960
H 3.145284 4.498354 2.946533
H 1.317275 3.023625 3.836676
P -3.288216 -0.219159 -0.003178
C -6.425470 -0.248267 -0.042031
C -5.740779 -1.463076 0.153027
C -4.347314 -1.582781 0.190218
C -4.369340 1.124060 -0.224477
C -5.762633 0.979457 -0.221962
H -7.526002 -0.259654 -0.055585
H -6.339356 -2.380612 0.284909
H -3.855318 -2.556115 0.342711
H -3.916079 2.116419 -0.375757
H -6.376461 1.884022 -0.371571
C -0.980835 1.664993 -0.143342
N -0.935936 2.862513 -0.297949
C -0.648742 4.146761 0.239138
H -1.066511 4.262221 1.263217
H -1.070400 4.946505 -0.403173
H 0.450720 4.297822 0.301736
Cl -1.045230 -2.570819 0.268366
