48

Ir 1.182181 0.158922 0.012262
N 3.298232 0.040864 -0.010837
C 3.884234 -1.183844 -0.061261
C 5.278855 -1.305681 -0.093807
N 6.110889 -0.251477 -0.077743
C 5.517500 0.951743 -0.028147
C 4.127388 1.115844 0.005200
H 3.181166 -2.033643 -0.073054
H 5.733539 -2.310684 -0.134925
H 6.169533 1.842423 -0.013826
H 3.663999 2.111747 0.044085
P -1.104845 -0.040624 -0.007029
C -1.018130 -0.946794 2.642001
C -1.724580 -1.021777 1.423984
C -1.756188 -0.932919 -1.487664
C -1.017253 -2.032765 -1.976935
C -1.500536 -2.758974 -3.075047
C -2.710207 -2.397295 -3.692127
C -3.443464 -1.303336 -3.206257
C -2.971085 -0.570074 -2.105355
C -2.087836 1.516689 0.040605
C -1.878204 2.468312 -0.981135
C -2.598130 3.670339 -0.982909
C -3.525979 3.938518 0.038049
C -3.732748 2.998209 1.058641
C -3.019263 1.788138 1.061680
C -2.890699 -1.808850 1.338078
C -3.350006 -2.505321 2.466550
C -2.649698 -2.421689 3.681469
C -1.483811 -1.643080 3.767266
H -0.093107 -0.348944 2.686990
H -0.070262 -2.300515 -1.478787
H -0.922081 -3.615287 -3.455027
H -3.081686 -2.968393 -4.557129
H -4.391074 -1.014382 -3.686610
H -3.549307 0.288249 -1.731068
H -1.143953 2.266061 -1.776663
H -2.426832 4.406659 -1.782832
H -4.086033 4.886237 0.038894
H -4.455795 3.204638 1.862648
H -3.187438 1.053304 1.863014
H -3.437039 -1.882715 0.385230
H -4.258938 -3.122218 2.394019
H -3.010590 -2.972871 4.563606
H -0.926514 -1.584069 4.714715
C 1.150020 1.972889 0.031029
O 1.161634 3.150007 0.053194
F 1.231019 -1.865408 0.034337
