31

Ir -0.185032 -0.234115 -0.053389
C 1.815612 -0.216459 -0.047004
C 3.993729 -0.641815 0.478704
C 3.983174 0.354399 -0.460558
H 4.825559 -1.132527 0.992756
H 4.803619 0.909492 -0.924945
C 2.219691 1.590835 -1.746966
H 2.853843 1.523318 -2.652409
H 1.166995 1.377142 -2.007480
H 2.283096 2.612274 -1.320831
C 2.237635 -2.001522 1.659907
H 1.237515 -1.724849 2.042742
H 2.163113 -2.989388 1.161463
H 2.959033 -2.063046 2.496603
N 2.669160 -0.974617 0.722809
N 2.653690 0.596897 -0.774553
N -2.301906 -0.074871 -0.005488
C -4.510192 0.778577 0.214417
O -4.487532 -0.641942 -0.126718
C -3.197006 -0.986864 -0.209976
C -3.021305 1.187236 0.279565
H -2.699821 1.574037 1.265486
H -2.727677 1.947980 -0.469450
H -5.045387 0.882583 1.179624
H -5.086976 1.303798 -0.572647
H -2.981056 -2.037584 -0.452612
C -0.212503 -2.010558 -0.478028
O -0.220089 -3.160220 -0.740820
N -0.152811 1.759883 0.425574
C 0.332034 2.854119 0.596787
O 0.779299 3.957776 0.751689
