37

Ir -0.061182 -0.410975 0.073101
As -2.471836 0.029646 -0.021454
C -3.729914 -1.420450 0.379303
C -3.105639 0.659432 -1.767353
C -3.104253 1.469463 1.150386
H -3.500469 -2.280363 -0.278577
H -4.777234 -1.094535 0.227896
H -3.584983 -1.736177 1.430295
H -2.947684 -0.139462 -2.516509
H -2.493781 1.537726 -2.048995
H -4.177322 0.936823 -1.728020
H -2.940015 1.173396 2.203952
H -4.177666 1.682643 0.979875
H -2.496952 2.369676 0.935641
C 1.968028 -0.559225 0.073085
C 4.204985 -0.000157 0.489440
C 4.157694 -1.157128 -0.521242
H 4.526754 0.959623 0.022298
H 4.521912 -2.118418 -0.087354
C 2.234986 -2.156902 -1.827912
H 2.400783 -3.218503 -1.536182
H 1.148636 -1.985534 -1.949746
H 2.748020 -1.971107 -2.795256
C 2.415968 1.057209 1.925556
H 2.563374 2.102837 1.574270
H 1.342858 0.911600 2.150902
H 3.014260 0.896325 2.847171
N 2.805387 0.097135 0.914318
N 2.726236 -1.245394 -0.820448
H 4.747070 -0.958824 -1.440234
H 4.873967 -0.198051 1.352231
C -0.284421 -2.203938 0.436271
N -0.437796 -3.414577 0.565445
H -0.508614 -3.939303 1.440602
N 0.182581 1.588492 -0.312085
C 0.557856 2.726333 -0.398404
S 1.073256 4.254308 -0.485651
