29

Ir 0.046068 -0.313788 0.024352
N 2.171325 -0.193360 -0.002385
C 2.826285 0.729625 -0.753447
C 4.226435 0.789473 -0.763935
N 5.002850 -0.039002 -0.048074
C 4.346263 -0.945499 0.694202
C 2.949732 -1.035426 0.726485
H 2.199937 1.432040 -1.323041
H 4.730995 1.548090 -1.387211
H 4.950362 -1.642544 1.300723
H 2.433175 -1.788270 1.338581
C -1.961876 -0.266277 0.017283
C -4.133493 -0.327945 -0.652779
C -4.112402 0.110212 0.645422
H -4.969047 -0.498909 -1.337987
H -4.926258 0.404219 1.314949
C -2.298135 0.604616 2.329132
H -1.392459 0.028572 2.597414
H -2.013835 1.673637 2.259809
H -3.085359 0.460621 3.092867
C -2.382939 -1.006013 -2.332134
H -2.723744 -0.296863 -3.112109
H -1.275995 -1.036030 -2.323426
H -2.784215 -2.016513 -2.548230
N -2.813742 -0.554015 -1.018353
N -2.782848 0.131225 1.039835
C 0.050454 -2.131392 0.175009
O 0.033490 -3.302017 0.288391
Br -0.087535 2.221932 -0.124663
