41

Ir 0.011428 0.094223 -0.002733
P -2.341134 0.060654 -0.026384
C -3.209113 -0.482811 1.530145
C -3.043342 -1.033212 -1.348399
C -2.585916 -0.648532 -2.757152
C -3.163734 1.700893 -0.359185
C -3.171894 2.673682 0.823705
C -3.026457 -1.941797 1.948283
H -2.831673 0.196545 2.322722
H -4.285681 -0.239883 1.383450
H -2.682982 -2.051950 -1.095235
H -4.151067 -1.022146 -1.248266
H -2.619368 2.139124 -1.220714
H -4.200319 1.488839 -0.700837
H -1.478618 -0.659931 -2.819229
H -2.980411 -1.366669 -3.504395
H -2.933250 0.363150 -3.051439
H -3.841836 2.331106 1.637159
H -2.159577 2.799596 1.256768
H -3.529786 3.673738 0.503766
H -3.438400 -2.643069 1.195401
H -1.956648 -2.195534 2.077747
H -3.554915 -2.129966 2.905406
P 2.297780 0.031368 0.018728
C 5.442180 -0.000700 0.071104
C 4.749395 -1.213588 0.245819
C 3.355076 -1.330990 0.241255
C 3.392892 1.370936 -0.168486
C 4.785363 1.227065 -0.127845
H 6.542624 -0.013822 0.088951
H 5.341613 -2.132539 0.395214
H 2.866863 -2.309024 0.375831
H 2.947954 2.364449 -0.335418
H 5.403462 2.131240 -0.261676
C 0.062697 1.943459 -0.089395
N 0.130515 3.139154 -0.258852
C 0.182420 4.459634 0.259065
H -0.814507 4.945606 0.189124
H 0.893257 5.081640 -0.323977
H 0.500007 4.473558 1.325157
Br -0.022782 -2.462224 -0.016336
