36

Ir 0.288931 0.009832 0.007413
P -1.986005 0.011865 -0.001871
C -2.721249 1.096299 1.321425
C -2.924622 -1.581258 0.240391
C -2.879392 -2.561716 -0.936122
C -2.798374 0.653853 -1.554543
C -2.398595 2.060983 -1.997898
C -2.303375 0.690534 2.736806
H -2.366547 2.124240 1.096211
H -3.826802 1.096990 1.199569
H -2.507022 -2.043653 1.159155
H -3.972474 -1.294836 0.478636
H -2.539161 -0.080288 -2.345229
H -3.896838 0.579329 -1.391350
H -1.834972 -2.778477 -1.237940
H -3.360257 -3.522015 -0.658051
H -3.419129 -2.169370 -1.821054
H -2.601782 2.824463 -1.220029
H -1.319162 2.111389 -2.238363
H -2.964841 2.354008 -2.905655
H -2.685625 -0.314469 3.009502
H -1.197462 0.659507 2.818178
H -2.692719 1.409248 3.486632
N 2.432683 0.002841 -0.067507
C 4.565175 -0.533916 -0.548273
C 3.245399 -0.888300 -0.746483
N 4.534228 0.586447 0.260286
C 3.234734 0.883427 0.534021
H 5.342799 1.107540 0.599723
H 5.499821 -0.974906 -0.906623
H 2.817611 -1.724604 -1.309046
H 2.906457 1.727572 1.148941
C 0.268799 1.846951 -0.091481
O 0.306968 3.026100 -0.077817
S 0.614073 -2.345428 0.337247
H -0.619819 -2.834822 0.624152
