53

Ir 1.413829 -0.140970 0.018303
P -0.842077 0.032230 0.013319
C -1.705728 -2.568553 0.642694
C -1.774521 -1.532627 -0.314228
C -1.508167 1.184083 -1.271592
C -0.784819 1.321037 -2.474092
C -1.277790 2.134356 -3.504975
C -2.489081 2.826078 -3.339076
C -3.206492 2.701056 -2.138319
C -2.720982 1.881562 -1.107019
C -1.609695 0.622642 1.595401
C -0.884964 1.499456 2.429296
C -1.462095 1.981770 3.613876
C -2.760691 1.593359 3.981473
C -3.485752 0.718839 3.156464
C -2.915033 0.233889 1.968912
C -2.507135 -1.737077 -1.499625
C -3.160566 -2.960634 -1.723372
C -3.092436 -3.984633 -0.766903
C -2.363772 -3.784801 0.418148
H -1.129408 -2.420305 1.569430
H 0.177672 0.794238 -2.577095
H -0.705783 2.237238 -4.440010
H -2.871839 3.470921 -4.145364
H -4.151274 3.249087 -1.999386
H -3.285738 1.794433 -0.166713
H 0.130184 1.805806 2.134198
H -0.887332 2.665784 4.257346
H -3.207834 1.969431 4.914778
H -4.503298 0.406844 3.438597
H -3.488442 -0.457967 1.333404
H -2.569365 -0.937355 -2.252484
H -3.728734 -3.110505 -2.654413
H -3.605853 -4.942146 -0.944468
H -2.302051 -4.585005 1.171520
N 3.680194 -0.069412 0.055323
C 4.145712 0.663718 -1.147857
C 4.098702 0.657513 1.279883
C 4.296712 -1.416132 0.065329
H 3.651119 1.667802 1.271947
H 5.210670 0.731732 1.323073
H 3.731491 0.112728 2.169663
H 3.999008 -1.972239 -0.842193
H 3.953566 -1.977909 0.953185
H 5.407996 -1.333114 0.092977
H 3.695139 1.672788 -1.154033
H 3.816724 0.121559 -2.053970
H 5.258329 0.741587 -1.145846
C 1.373678 -2.015037 -0.076018
O 1.356658 -3.183260 -0.165402
C 1.461900 1.902368 0.032175
C 1.505561 3.143256 0.024116
H 1.521415 4.224795 0.004545
