43

Ir 0.042504 0.056419 0.006464
P -2.308384 0.019631 -0.025982
C -3.144785 -0.497183 1.553124
C -2.994649 -1.154421 -1.290005
C -2.468796 -0.902318 -2.705005
C -3.162584 1.621966 -0.439868
C -3.174922 2.662290 0.683835
C -2.703947 -1.844753 2.127522
H -2.931349 0.314695 2.279194
H -4.240117 -0.474820 1.355733
H -2.722417 -2.175608 -0.953266
H -4.103289 -1.080308 -1.239792
H -2.629971 2.016193 -1.329803
H -4.198092 1.376530 -0.761153
H -1.362444 -0.971696 -2.725518
H -2.877013 -1.652549 -3.412052
H -2.750819 0.101787 -3.082967
H -3.836926 2.360754 1.519818
H -2.161481 2.825732 1.101075
H -3.546526 3.637107 0.307091
H -2.899391 -2.688791 1.436513
H -1.618331 -1.845335 2.344919
H -3.249318 -2.053045 3.070438
P 2.317264 -0.093663 0.023196
C 5.443551 -0.383969 0.051796
C 4.656865 -1.544817 0.178738
C 3.257683 -1.547110 0.179127
C 3.512333 1.161439 -0.115974
C 4.888428 0.901003 -0.089298
H 6.539365 -0.486064 0.061892
H 5.174383 -2.513555 0.283815
H 2.691695 -2.486135 0.279643
H 3.148598 2.194115 -0.235377
H 5.578500 1.756426 -0.186381
C 0.125791 1.913187 -0.114498
N 0.199108 3.105365 -0.302357
C 0.261624 4.438472 0.177501
H -0.740220 4.917927 0.132287
H 0.946717 5.049421 -0.446755
H 0.617695 4.483140 1.230779
N -0.052047 -1.992923 0.065116
C -0.487102 -3.114962 -0.026924
O -0.915207 -4.234966 -0.105731
