30

Ir -0.141455 -0.023969 -0.020601
N -2.201634 -0.139996 -0.087725
C -4.368984 0.298167 -0.517682
C -3.077718 0.754251 -0.685972
N -4.255655 -0.883131 0.191750
C -2.941643 -1.121729 0.443139
H -5.023070 -1.489208 0.481151
H -5.332664 0.704226 -0.838506
H -2.714358 1.653048 -1.192436
H -2.498882 -1.998373 0.941138
N 1.904843 -0.014455 -0.001614
C 4.730642 -0.081480 -0.050176
C 4.015884 0.863819 -0.801861
C 2.620509 0.868137 -0.755044
C 2.602691 -0.931036 0.728373
C 3.998241 -0.989611 0.727520
H 5.830261 -0.109900 -0.071516
H 4.530448 1.600966 -1.435239
H 2.027014 1.588232 -1.334190
H 2.003340 -1.622588 1.334282
H 4.497665 -1.753843 1.340205
C -0.214191 1.840451 0.073843
N -0.246881 3.048853 0.094873
C -0.382218 4.281057 0.784331
H -1.201741 4.888436 0.344667
H 0.549211 4.880528 0.700327
H -0.601651 4.129383 1.864223
N -0.026898 -2.150039 -0.062812
O 0.790670 -2.661788 -0.846649
O -0.701822 -2.881475 0.700654
