33

Ir -0.120408 -0.093265 0.014785
As 2.249490 -0.271120 0.036082
C 3.314207 1.378252 0.021701
C 3.012928 -1.285569 -1.454180
C 2.974677 -1.235785 1.577697
H 3.081588 1.944318 -0.900796
H 4.396864 1.148061 0.055521
H 3.032755 1.991781 0.898897
H 2.769865 -0.771332 -2.403063
H 2.527448 -2.280281 -1.447595
H 4.110382 -1.385340 -1.342062
H 2.701360 -0.695224 2.503350
H 4.075398 -1.332562 1.499822
H 2.495723 -2.233567 1.587069
N -2.234435 -0.167018 0.015808
C -5.058188 -0.287577 0.029136
C -4.290432 -1.356118 -0.454699
C -2.895242 -1.265850 -0.444152
C -2.984079 0.867610 0.485383
C -4.380860 0.842984 0.509711
H -6.157531 -0.334869 0.034662
H -4.760166 -2.272618 -0.840097
H -2.260166 -2.094228 -0.789276
H -2.422963 1.739304 0.848566
H -4.924819 1.712690 0.906156
C -0.045973 1.810262 -0.030220
N 0.052710 3.008212 -0.034939
C 0.306628 4.342124 -0.409663
H 1.399317 4.550292 -0.409611
H -0.169801 5.054370 0.297056
H -0.083376 4.559037 -1.428783
C -0.017773 -2.130431 -0.000055
N 0.126156 -3.305600 -0.035577
