33

Ir -0.165704 0.038661 0.014133
N -2.247716 -0.200934 0.020829
C -2.814916 -1.342228 -0.454430
C -4.205229 -1.509141 -0.452431
N -5.058290 -0.580474 0.009617
C -4.486402 0.538903 0.483317
C -3.102349 0.744173 0.496174
H -2.115924 -2.114435 -0.808109
H -4.637627 -2.444403 -0.848602
H -5.154408 1.324120 0.878548
H -2.654727 1.670732 0.881783
As 2.219690 0.095200 0.023287
C 3.091633 1.848456 -0.021873
C 3.092737 -0.859232 -1.448140
C 3.047327 -0.758582 1.579951
H 2.809742 2.361967 -0.960941
H 4.192226 1.740410 0.031005
H 2.727081 2.447779 0.833936
H 2.720208 -0.458762 -2.409476
H 2.826543 -1.931076 -1.375299
H 4.192181 -0.740886 -1.384855
H 2.671068 -0.273037 2.499715
H 4.150580 -0.675860 1.526253
H 2.750156 -1.824795 1.586533
C -0.260397 1.885728 0.054020
N -0.302504 3.094572 0.164439
C -0.258536 4.351941 -0.499904
H 0.759138 4.795006 -0.428917
H -0.959260 5.071096 -0.027109
H -0.522269 4.265155 -1.577368
N 0.023484 -2.014351 -0.032164
C 0.665009 -3.041352 -0.001337
O 1.279582 -4.071901 0.021877
