38

Ir -0.171978 0.072217 -0.026676
N -2.304131 0.019042 -0.043435
C -2.982335 -1.071760 -0.488811
C -4.383354 -1.096519 -0.499113
N -5.139361 -0.072978 -0.071947
C -4.460748 0.995585 0.375433
C -3.062251 1.058672 0.394162
H -2.379571 -1.931951 -0.812898
H -4.904891 -1.995314 -0.871139
H -5.047953 1.855418 0.742547
H -2.529682 1.948865 0.757025
P 2.114870 -0.070752 0.031061
C 3.062764 1.522618 0.214580
C 2.928950 -0.845060 -1.452739
C 2.501623 -2.274324 -1.788936
C 2.735378 -1.085615 1.455621
C 2.284976 -0.560449 2.820704
C 3.149618 2.385544 -1.046866
H 2.556007 2.076368 1.031570
H 4.078928 1.259854 0.580877
H 2.701514 -0.165520 -2.300446
H 4.025990 -0.781224 -1.274542
H 2.332218 -2.105213 1.286176
H 3.843304 -1.137650 1.374286
H 1.415752 -2.333525 -1.993383
H 3.047248 -2.632827 -2.685590
H 2.708879 -2.981539 -0.962022
H 2.681767 0.453652 3.032751
H 1.178344 -0.508610 2.869438
H 2.634551 -1.231697 3.631099
H 3.779376 1.915688 -1.828333
H 2.149696 2.569437 -1.486961
H 3.598302 3.372304 -0.811762
C -0.157654 1.950561 -0.142829
N -0.186031 3.165773 -0.046963
H -0.164916 3.921599 -0.731855
C -0.184788 -1.963660 0.228505
N -0.196004 -3.134848 0.394210
