32

Ir 0.040673 -0.421899 -0.053203
C 2.101030 -0.501175 -0.055286
C 4.249066 -0.974797 0.511406
C 4.279782 -0.045203 -0.494944
H 5.059201 -1.460535 1.063457
H 5.122319 0.445126 -0.991625
C 2.568015 1.191491 -1.852995
H 1.521021 0.986363 -2.139955
H 2.632451 2.226420 -1.459667
H 3.227386 1.078852 -2.734721
C 2.433897 -2.189174 1.763398
H 1.432472 -1.866400 2.103776
H 2.353163 -3.207014 1.331022
H 3.132375 -2.206382 2.620922
N 2.911707 -1.238628 0.767509
N 2.962476 0.227161 -0.830825
P -2.241588 -0.137046 -0.006577
C -5.341777 0.326254 0.060751
C -4.862194 -0.981031 -0.139651
C -3.503388 -1.317531 -0.189251
C -3.093226 1.360059 0.221860
C -4.490766 1.434651 0.232062
H -6.429883 0.489534 0.084452
H -5.599593 -1.791684 -0.265801
H -3.200188 -2.364166 -0.351215
H -2.480838 2.264377 0.362329
H -4.952094 2.425080 0.383894
C -0.102574 -2.227451 -0.383473
O -0.180418 -3.379807 -0.589816
N 0.254014 1.573588 0.288629
C 0.622444 2.713590 0.368534
S 1.128645 4.242988 0.442207
