24

Ir 0.088160 0.285944 -0.051891
N -1.957463 0.234381 -0.028674
C -2.649521 -0.738066 -0.686905
C -4.049046 -0.762942 -0.667058
N -4.795817 0.144029 -0.017223
C -4.104690 1.097097 0.628846
C -2.707408 1.158065 0.635822
H -2.053133 -1.497777 -1.209885
H -4.578987 -1.562677 -1.212682
H -4.680300 1.861318 1.179317
H -2.164971 1.945392 1.176152
N 2.141824 0.235981 -0.080051
C 4.436127 0.707979 0.300598
O 4.226905 -0.528049 -0.448180
C 2.909450 -0.683967 -0.580525
C 3.013397 1.270021 0.519646
H 2.838746 2.239852 0.010943
H 2.749020 1.397028 1.587696
H 5.091189 1.362995 -0.306498
H 4.961154 0.444153 1.240227
H 2.544487 -1.591908 -1.081346
C 0.090632 2.101868 -0.243215
O 0.096361 3.273730 -0.342909
Br 0.130425 -2.222359 0.296537
