36

Ir 0.040597 0.141082 -0.061463
As -2.388106 -0.080188 0.047023
C -3.522529 1.410991 -0.541763
C -3.097985 -0.453800 1.835124
C -3.121929 -1.581803 -0.976937
H -3.280035 2.303958 0.065828
H -4.597008 1.164592 -0.435013
H -3.292417 1.636574 -1.600774
H -2.887050 0.410857 2.492658
H -2.555216 -1.338355 2.219770
H -4.187877 -0.648361 1.800271
H -2.928844 -1.410874 -2.053097
H -4.209455 -1.694324 -0.799442
H -2.577565 -2.489530 -0.653199
C 2.070509 0.016251 -0.032175
C 4.222082 -0.820465 -0.428786
C 4.311665 0.335457 0.582276
H 4.418653 -1.811301 0.044214
H 4.799721 1.241350 0.151015
C 2.505625 1.585112 1.848911
H 2.861732 2.604611 1.575503
H 1.398504 1.585848 1.898175
H 2.918563 1.323617 2.846481
C 2.301113 -1.665937 -1.845204
H 2.322437 -2.712256 -1.467470
H 1.246368 -1.390250 -2.041368
H 2.890249 -1.604269 -2.784635
N 2.826046 -0.742407 -0.864738
N 2.900440 0.605623 0.864604
H 4.862500 0.065114 1.507019
H 4.920241 -0.709410 -1.284216
C -0.006653 1.891011 -0.737463
O -0.065510 2.988855 -1.147522
C 0.024003 -1.761524 0.700175
C -0.014298 -2.917888 1.150661
H -0.032924 -3.922511 1.551361
