36

Ir 0.104082 -0.032072 0.014695
P -2.181247 -0.171315 0.046937
C -5.317814 -0.418510 0.092584
C -4.744097 0.865366 0.052919
C -3.364159 1.105554 0.030531
C -3.146940 -1.617121 0.097151
C -4.545428 -1.595995 0.114893
H -6.414972 -0.505889 0.108531
H -5.421870 1.736189 0.040825
H -2.986586 2.140246 0.005783
H -2.585314 -2.564668 0.118898
H -5.075786 -2.563230 0.148337
C 2.151930 -0.103360 0.016331
C 4.308903 -0.769687 -0.586321
C 4.374940 -0.004435 0.746517
H 4.486426 -1.862402 -0.453142
H 4.872655 0.988794 0.644732
C 2.535404 0.767742 2.315693
H 2.916383 1.809443 2.414425
H 1.427684 0.780427 2.329687
H 2.906214 0.172916 3.177326
C 2.415067 -1.121293 -2.231649
H 2.349582 -2.228470 -2.154562
H 1.392358 -0.731890 -2.400036
H 3.071520 -0.843475 -3.082471
N 2.923510 -0.539066 -1.007536
N 2.956366 0.171650 1.069139
H 4.901976 -0.564603 1.546300
H 5.029609 -0.397298 -1.343254
C 0.062946 1.814773 -0.115244
N 0.037631 3.025943 -0.124269
C -0.010645 4.222126 -0.890000
H 0.877998 4.856139 -0.683346
H -0.905802 4.822827 -0.621360
H -0.045322 4.018272 -1.983376
Cl 0.244968 -2.441455 0.172314
