53

Ir -1.149733 -0.695010 0.021541
P 0.997454 0.053595 0.011871
C 1.597493 -1.457930 -2.269085
C 2.125321 -0.936911 -1.068197
C 1.830660 0.060156 1.662487
C 1.402417 -0.846898 2.653338
C 2.048125 -0.889378 3.898341
C 3.120017 -0.023306 4.168016
C 3.545391 0.888905 3.188429
C 2.905170 0.933201 1.940296
C 1.224042 1.782077 -0.586422
C 0.764456 2.842546 0.223569
C 0.852736 4.164987 -0.230030
C 1.410000 4.442457 -1.489452
C 1.876508 3.392045 -2.294105
C 1.782227 2.063338 -1.848988
C 3.481709 -1.155194 -0.755284
C 4.298577 -1.881692 -1.635949
C 3.772126 -2.388931 -2.834626
C 2.420304 -2.175013 -3.150066
H 0.529596 -1.303938 -2.494496
H 0.547514 -1.507756 2.443363
H 1.704835 -1.599712 4.666002
H 3.621182 -0.053329 5.147806
H 4.379674 1.576086 3.397579
H 3.235372 1.658192 1.180595
H 0.318826 2.633205 1.207317
H 0.463546 4.979065 0.398907
H 1.473799 5.481731 -1.846562
H 2.315411 3.603793 -3.281267
H 2.145384 1.245643 -2.488928
H 3.902723 -0.766378 0.183701
H 5.354976 -2.055275 -1.379437
H 4.415734 -2.959554 -3.521770
H 1.999733 -2.576996 -4.084577
N -3.329402 -1.329169 0.021970
C -3.987612 -0.750519 1.219792
C -3.972513 -0.807992 -1.209940
C -3.482410 -2.802542 0.055466
H -3.881048 0.291703 -1.240097
H -5.049609 -1.093916 -1.232225
H -3.461379 -1.231030 -2.094631
H -3.007190 -3.208658 0.966968
H -2.992535 -3.250740 -0.828142
H -4.561712 -3.079194 0.053379
H -3.899164 0.349642 1.197606
H -3.486176 -1.128862 2.129948
H -5.064401 -1.037355 1.243748
C -0.522485 -2.419067 0.082643
O -0.124541 -3.523711 0.131499
N -1.890729 1.189487 -0.031073
C -2.328179 2.309426 -0.039829
S -2.930292 3.803146 -0.039514
