26

Ir 0.000009 0.038174 0.017005
N -2.053449 -0.017410 0.009808
C -2.731123 -1.100370 -0.466454
C -4.130922 -1.127385 -0.475509
N -4.892070 -0.118204 -0.023289
C -4.216749 0.939939 0.452253
C -2.819875 1.007675 0.476140
H -2.126399 -1.947250 -0.817509
H -4.647621 -2.018595 -0.871123
H -4.805789 1.788877 0.840775
H -2.290449 1.884801 0.870066
N 2.053406 -0.017298 0.009597
C 2.819873 1.007974 0.475521
C 4.216732 0.940154 0.451853
N 4.892100 -0.118237 -0.023111
C 4.130934 -1.127547 -0.475005
C 2.731133 -1.100453 -0.466164
H 2.290467 1.885341 0.868935
H 4.805735 1.789270 0.840044
H 4.647594 -2.018962 -0.870213
H 2.126479 -1.947478 -0.816989
C -0.000059 1.898210 -0.345732
N -0.000144 3.060801 -0.688584
H -0.000105 3.992697 -0.280516
C 0.000075 -1.977065 0.390207
N 0.000048 -3.148926 0.547648
