40

Ir 0.000024 -0.014933 -0.009625
C -2.056415 -0.094386 0.007327
C -4.253891 0.332473 0.462804
C -4.210557 -0.681196 -0.459382
H -5.102617 0.819250 0.952705
H -5.015782 -1.248314 -0.936448
C -2.368532 -1.918378 -1.665694
H -1.484018 -2.418581 -1.223749
H -3.161389 -2.664939 -1.861231
H -2.076314 -1.430649 -2.617162
C -2.519391 1.693743 1.680623
H -1.417462 1.613515 1.769945
H -2.792006 2.705980 1.316472
H -2.988517 1.520293 2.669395
N -2.936244 0.672939 0.735264
N -2.870890 -0.928689 -0.719165
C 2.056467 -0.094335 0.007324
C 4.253936 0.332674 0.462710
C 4.210632 -0.681019 -0.459449
H 5.102652 0.819501 0.952579
H 5.015866 -1.248117 -0.936524
C 2.368640 -1.918329 -1.665693
H 1.484163 -2.418581 -1.223734
H 2.076352 -1.430587 -2.617132
H 3.161552 -2.664820 -1.861264
C 2.519436 1.693754 1.680692
H 2.792860 2.705962 1.317081
H 1.417413 1.614078 1.769355
H 2.987835 1.519682 2.669705
N 2.936280 0.673068 0.735213
N 2.870968 -0.928613 -0.719158
C -0.000055 1.662017 -0.829518
N -0.000149 2.725885 -1.408237
C -0.000348 4.142625 -1.362033
H -0.892285 4.555121 -1.881418
H 0.892542 4.555312 -1.879635
H -0.001426 4.531535 -0.317985
N 0.000000 -1.904048 0.978895
O -0.000040 -2.975825 0.322328
O -0.000025 -1.933854 2.215448
