36

Ir -0.258541 -0.000334 -0.030111
N -0.138660 -2.169446 -0.032869
C -1.460344 -2.845025 -0.065864
C 0.630406 -2.595150 -1.235492
C 0.577361 -2.611833 1.196161
H 0.096224 -2.256071 -2.141660
H 0.730680 -3.704799 -1.250823
H 1.631381 -2.130833 -1.215827
H 0.007865 -2.278605 2.082870
H 1.580554 -2.153197 1.224220
H 0.670348 -3.722087 1.203891
H -2.015088 -2.534489 -0.968887
H -2.044587 -2.555945 0.825995
H -1.322007 -3.949804 -0.074400
N -0.141210 2.168915 -0.033019
C -1.463679 2.842942 -0.066167
C 0.574187 2.612152 1.196061
C 0.627465 2.595449 -1.235573
H 0.005005 2.278303 2.082737
H 0.665933 3.722514 1.203775
H 1.577897 2.154648 1.224203
H 0.093762 2.255747 -2.141793
H 1.628965 2.132262 -1.215810
H 0.726500 3.705212 -1.250949
H -2.047611 2.553299 0.825721
H -2.017979 2.531668 -0.969219
H -1.326660 3.947891 -0.074826
C -2.097676 -0.001224 -0.110281
N -3.307683 -0.001782 -0.256691
C -4.562042 0.000621 0.415351
H -5.171842 -0.878651 0.114167
H -5.151349 0.904100 0.146114
H -4.450808 -0.020254 1.523087
N 1.790181 0.000771 0.051193
C 2.993640 0.001489 0.082327
S 4.606636 0.002440 0.125407
