56

Ir 1.019326 -0.021223 -0.030438
P -1.291129 -0.131306 -0.016936
C -1.986805 2.356006 -1.124411
C -2.134161 1.516888 0.002898
C -2.003581 -0.994174 1.453724
C -1.197708 -1.133252 2.601522
C -1.713051 -1.748727 3.752808
C -3.030672 -2.233437 3.762716
C -3.834155 -2.104601 2.616910
C -3.324287 -1.488708 1.464244
C -2.099467 -0.990578 -1.447271
C -1.487406 -2.148496 -1.973674
C -2.098989 -2.850315 -3.023218
C -3.317040 -2.405780 -3.563156
C -3.929505 -1.254932 -3.043045
C -3.326956 -0.550111 -1.988478
C -2.832497 1.995879 1.127868
C -3.379483 3.290840 1.124489
C -3.242068 4.114980 -0.002763
C -2.545697 3.641735 -1.130201
H -1.428511 1.994479 -2.002457
H -0.158512 -0.765673 2.565179
H -1.075832 -1.860428 4.643487
H -3.431724 -2.723270 4.663631
H -4.864036 -2.493915 2.617731
H -3.953637 -1.401631 0.565115
H -0.535050 -2.505379 -1.552452
H -1.612846 -3.753537 -3.422922
H -3.789779 -2.956698 -4.391034
H -4.885318 -0.899729 -3.458708
H -3.817310 0.350331 -1.588940
H -2.949882 1.353535 2.013596
H -3.922994 3.653301 2.010757
H -3.679493 5.125347 -0.006723
H -2.436501 4.279962 -2.021026
As 3.442515 -0.199163 -0.069507
C 4.522015 1.434804 -0.196231
C 4.130870 -1.288541 -1.542716
C 4.217086 -1.109817 1.480814
H 4.245715 1.971538 -1.123851
H 5.603100 1.194860 -0.208034
H 4.290409 2.083329 0.670199
H 3.848400 -0.817873 -2.503204
H 3.639519 -2.277389 -1.464866
H 5.231501 -1.393331 -1.476033
H 3.992112 -0.526573 2.393657
H 5.312066 -1.228093 1.363073
H 3.723795 -2.098424 1.550436
C 1.031224 1.893341 -0.048426
N 1.060269 3.089004 -0.024449
C 0.857920 4.469334 0.151772
H 1.158851 4.791604 1.172546
H -0.216227 4.720360 0.011298
H 1.451703 5.057388 -0.580273
C 1.156968 -2.049368 0.105161
N 1.359871 -3.214113 0.179208
