33

Ir -0.255865 -0.011495 0.014367
As 2.110553 -0.166844 0.052039
C 2.965407 0.678161 1.601655
C 3.053279 0.724114 -1.419670
C 2.916199 -1.953546 0.047332
H 2.689913 1.750236 1.600968
H 4.066861 0.572427 1.548087
H 2.579754 0.208210 2.525759
H 2.833764 1.808111 -1.371933
H 2.681214 0.322774 -2.380895
H 4.145421 0.559659 -1.333854
H 2.510972 -2.527138 0.902490
H 4.018938 -1.887365 0.121261
H 2.633293 -2.468555 -0.890667
N -2.322654 0.325232 0.012640
C -4.681129 0.088226 0.138535
O -4.261946 1.475676 -0.029451
C -2.923857 1.470237 -0.062446
C -3.362587 -0.718773 0.099747
H -3.277993 -1.387721 -0.780592
H -3.191968 -1.336887 1.002863
H -5.384633 -0.155243 -0.681795
H -5.219088 0.014646 1.105464
H -2.394131 2.430408 -0.150177
C -0.426812 -1.846223 0.095920
N -0.519357 -3.053669 0.228004
C -0.497315 -4.293310 -0.473418
H -1.269103 -4.985329 -0.075360
H 0.485365 -4.798599 -0.343673
H -0.674003 -4.165902 -1.565232
N -0.016698 2.043414 -0.094706
C 0.671252 3.037353 -0.170391
O 1.329835 4.038696 -0.248225
