30

Ir -0.466372 0.166919 -0.013645
N -2.716082 0.124226 -0.075106
C -3.192140 -0.026056 1.326460
C -3.262008 1.376527 -0.656916
C -3.210756 -1.017124 -0.893312
H -2.957210 2.244531 -0.045254
H -4.374319 1.330941 -0.685435
H -2.875611 1.509133 -1.684352
H -2.932645 -1.970261 -0.413233
H -2.763643 -0.970322 -1.903541
H -4.319825 -0.966533 -0.976305
H -2.860221 0.845662 1.920435
H -2.746757 -0.945514 1.750081
H -4.304644 -0.088060 1.348834
P 1.763299 0.062146 -0.003248
C 4.888199 -0.063912 0.014240
C 4.164787 -1.253013 -0.194145
C 2.767882 -1.335420 -0.228901
C 2.877468 1.372862 0.226705
C 4.265152 1.181342 0.210703
H 5.987577 -0.109908 0.020790
H 4.732175 -2.186825 -0.345533
H 2.254363 -2.290814 -0.414005
H 2.462579 2.379843 0.388044
H 4.905726 2.066176 0.363530
C -0.372576 2.019825 -0.049471
O -0.272484 3.185891 -0.031414
N -0.540904 -1.948499 0.140546
O -0.018011 -2.662256 -0.728375
O -1.147448 -2.447796 1.107928
