31

Ir -0.213001 0.007016 0.015820
N -2.332552 -0.118785 0.035103
C -2.964208 -1.177319 -0.532731
C -4.363183 -1.264422 -0.522833
N -5.151038 -0.335801 0.041206
C -4.512987 0.700706 0.608104
C -3.118391 0.825973 0.611198
H -2.315060 -1.952106 -0.965743
H -4.856293 -2.130337 -0.997439
H -5.130981 1.478615 1.089256
H -2.611092 1.685225 1.071913
P 2.014717 0.037080 0.022841
C 5.150610 0.095168 0.046015
C 4.496899 -1.147437 -0.047706
C 3.106659 -1.313168 -0.069509
C 3.059034 1.421514 0.134022
C 4.454942 1.314473 0.133141
H 6.250816 0.113105 0.054273
H 5.117461 -2.057344 -0.108062
H 2.680479 -2.325683 -0.139349
H 2.580611 2.409777 0.213608
H 5.042860 2.244882 0.208451
C -0.254537 1.871591 0.003505
N -0.291276 3.077798 0.058572
C -0.283763 4.352327 -0.567254
H -0.255558 4.268569 -1.675819
H 0.598448 4.941476 -0.238418
H -1.187091 4.931674 -0.282812
N -0.212438 -2.037957 -0.007858
C 0.277513 -3.144395 0.025983
O 0.735660 -4.251398 0.048573
