26

Ir -0.004329 0.117608 0.032817
N 2.052477 0.056543 0.036485
C 4.213495 0.551746 0.454944
C 2.909663 0.957813 0.653302
N 4.132393 -0.607018 -0.292982
C 2.820948 -0.879924 -0.535100
H 4.915567 -1.175896 -0.612672
H 5.166450 0.978469 0.780820
H 2.522837 1.827763 1.191681
H 2.439222 -1.756096 -1.070168
N -2.061609 0.107703 0.049159
C -4.220076 0.701328 -0.240418
C -2.911179 1.098110 -0.423397
N -4.150149 -0.544038 0.352716
C -2.840524 -0.875466 0.520162
H -4.939450 -1.129342 0.624028
H -5.169241 1.189057 -0.480320
H -2.519135 2.020649 -0.859390
H -2.468200 -1.820221 0.930780
C 0.034831 1.942822 0.127912
N 0.088615 3.154336 0.274510
C 0.120850 4.370645 -0.471823
H 1.057877 4.931390 -0.264660
H -0.719377 5.034729 -0.174373
H 0.058304 4.200353 -1.570247
Br -0.034620 -2.449480 -0.127861
