53

Ir 1.138715 -0.201316 -0.060564
N 3.247728 -0.248673 0.007033
C 3.921223 -1.144476 0.775600
C 5.321955 -1.140486 0.820949
N 6.076579 -0.273368 0.127883
C 5.398917 0.602564 -0.633206
C 4.001648 0.628102 -0.706608
H 3.310635 -1.867749 1.335895
H 5.845068 -1.877533 1.454749
H 5.987682 1.326588 -1.223099
H 3.459529 1.352088 -1.331074
P -1.134653 -0.090323 -0.006786
C -1.028615 1.029621 2.591825
C -1.857094 0.429539 1.622543
C -2.119237 -1.616854 -0.361553
C -2.135744 -2.642962 0.610453
C -2.833840 -3.834562 0.367476
C -3.515517 -4.018909 -0.847454
C -3.496682 -3.005284 -1.817585
C -2.802133 -1.807793 -1.578081
C -1.813141 1.141309 -1.218300
C -1.177343 1.208922 -2.477491
C -1.635008 2.104608 -3.454894
C -2.717190 2.957007 -3.179028
C -3.340559 2.907329 -1.922221
C -2.895029 2.001284 -0.945457
C -3.227779 0.242062 1.908467
C -3.760919 0.671088 3.133641
C -2.932083 1.284248 4.088073
C -1.565746 1.458114 3.816183
H 0.047595 1.128637 2.376872
H -1.596086 -2.506376 1.560233
H -2.840197 -4.627102 1.131396
H -4.060977 -4.956000 -1.037624
H -4.028431 -3.143132 -2.771622
H -2.795598 -1.017381 -2.343278
H -0.302513 0.565036 -2.666693
H -1.133598 2.145984 -4.434145
H -3.069701 3.667848 -3.942418
H -4.181718 3.580824 -1.695702
H -3.388379 1.977256 0.037247
H -3.880403 -0.254064 1.173338
H -4.830437 0.518991 3.346338
H -3.351390 1.615611 5.050711
H -0.907367 1.920471 4.567996
C 1.118533 1.671430 0.026464
N 1.091280 2.881819 -0.052247
C 0.849152 4.099026 0.645443
H -0.068420 4.585236 0.250621
H 1.687984 4.810246 0.495026
H 0.713823 3.939130 1.738598
S 1.326651 -2.557451 -0.373030
H 0.039524 -2.977204 -0.509804
