32

Ir 0.074373 -0.070526 0.023380
N 2.199526 -0.017488 -0.002711
C 2.889541 0.715379 -0.916753
C 4.290721 0.731905 -0.920385
N 5.036815 0.033782 -0.049963
C 4.346243 -0.688997 0.848185
C 2.948095 -0.722145 0.887612
H 2.287775 1.300182 -1.629292
H 4.822359 1.339869 -1.673053
H 4.924568 -1.275662 1.583125
H 2.402518 -1.316307 1.634324
C -1.926226 -0.006000 -0.004810
C -4.144616 -0.286786 -0.726579
C -4.144623 0.382806 0.656529
H -4.474295 0.407378 -1.535340
H -4.518237 -0.298999 1.456470
C -2.286433 1.303953 2.090861
H -2.481821 0.654940 2.974939
H -1.201786 1.506296 2.012491
H -2.824364 2.264637 2.231832
C -2.291520 -1.283174 -2.117675
H -2.607286 -0.706065 -3.016143
H -1.185468 -1.334677 -2.096312
H -2.713450 -2.308341 -2.191020
N -2.733521 -0.630432 -0.906160
N -2.724491 0.670077 0.866338
H -4.753735 1.309812 0.695677
H -4.790353 -1.188250 -0.776428
C 0.018525 -1.871244 0.436328
O -0.052318 -3.012455 0.710157
S 0.145099 2.287317 -0.447684
H -1.162712 2.532473 -0.742219
