53

Ir -0.858332 -0.494416 0.015582
P 1.427505 0.002785 0.013787
C 1.837902 -1.576710 -2.260525
C 2.434289 -1.094782 -1.075951
C 2.242619 -0.110127 1.666298
C 1.744526 -1.032778 2.609640
C 2.369730 -1.171828 3.857755
C 3.489032 -0.386364 4.178434
C 3.983270 0.540824 3.246568
C 3.364962 0.680638 1.994201
C 1.828934 1.703932 -0.562148
C 1.389556 2.794385 0.220478
C 1.585219 4.107027 -0.228312
C 2.228084 4.344040 -1.455065
C 2.676491 3.263626 -2.230185
C 2.474994 1.944944 -1.790584
C 3.771671 -1.430675 -0.784381
C 4.502809 -2.236253 -1.671203
C 3.908871 -2.706037 -2.853925
C 2.576150 -2.374121 -3.147678
H 0.785015 -1.326097 -2.469915
H 0.853427 -1.629753 2.361243
H 1.973001 -1.893342 4.588313
H 3.973707 -0.491396 5.161333
H 4.855557 1.164379 3.496169
H 3.749930 1.415531 1.270619
H 0.877831 2.615748 1.177479
H 1.212869 4.946854 0.377011
H 2.374755 5.375819 -1.809601
H 3.183748 3.444320 -3.190397
H 2.819874 1.102585 -2.408660
H 4.242662 -1.069541 0.142193
H 5.544494 -2.501138 -1.433190
H 4.485054 -3.339358 -3.545984
H 2.103540 -2.745860 -4.069712
As -3.289507 -0.768448 0.012765
C -4.018128 -2.585291 0.037430
C -4.187402 0.055983 -1.517499
C -4.192313 0.100054 1.515752
H -3.649883 -3.129843 -0.852854
H -5.125153 -2.564592 0.035934
H -3.651778 -3.104729 0.943361
H -3.804166 -0.398012 -2.450487
H -3.946366 1.136502 -1.513669
H -5.283110 -0.088633 -1.444770
H -3.807648 -0.322320 2.462909
H -5.287252 -0.052039 1.446894
H -3.956838 1.181192 1.477696
C -0.542242 -2.305251 0.034549
O -0.385037 -3.468910 0.048135
N -1.357160 1.473954 -0.010380
C -1.855054 2.567075 -0.022678
S -2.524622 4.033780 -0.028625
