36

Ir -0.224890 0.024373 0.014602
P -2.561059 -0.124439 0.048137
C -3.226793 -0.112366 1.766683
C -3.145694 -1.750630 -0.588934
C -3.580068 1.125595 -0.842639
H -2.666841 -0.895760 2.314803
H -4.316249 -0.319926 1.798676
H -3.013753 0.867281 2.236467
H -2.524985 -2.507786 -0.068472
H -2.941888 -1.813490 -1.675468
H -4.224409 -1.920930 -0.395323
H -3.307877 2.135406 -0.477912
H -4.665818 0.952487 -0.698794
H -3.338132 1.079725 -1.922563
C 1.807839 -0.099275 0.056358
C 3.965644 -0.899243 -0.425404
C 4.084827 0.385583 0.405762
H 4.570047 -1.740491 -0.026257
H 4.752646 1.144524 -0.053343
C 2.373510 2.061060 1.178064
H 2.768610 2.957573 0.654310
H 1.273244 2.140411 1.251862
H 2.807266 2.031635 2.203658
C 1.985211 -2.323293 -1.063383
H 2.563354 -3.234523 -0.802450
H 0.931694 -2.455049 -0.747885
H 2.033076 -2.180691 -2.167592
N 2.531338 -1.184972 -0.351130
N 2.697760 0.851355 0.456270
H 4.461187 0.190767 1.438567
H 4.269710 -0.742273 -1.488058
C -0.208461 1.659046 -0.823024
N -0.219956 2.815375 -1.259198
H -0.160542 3.026522 -2.261520
O -0.419020 -1.792450 0.966265
H 0.414146 -2.037092 1.408244
