29

Ir 0.066934 0.068498 -0.025787
As 2.504711 -0.000546 0.041938
C 3.341947 -0.908048 -1.476212
C 3.289583 -0.912062 1.589310
C 3.441387 1.718523 0.074926
H 2.856697 -1.895842 -1.589057
H 4.433230 -1.016749 -1.321929
H 3.141460 -0.314096 -2.388034
H 2.878188 -1.936913 1.653509
H 2.998957 -0.359288 2.502600
H 4.392929 -0.949599 1.500066
H 3.153413 2.297838 -0.822762
H 4.538020 1.566476 0.090967
H 3.124299 2.281691 0.973116
P -2.205332 0.011034 -0.005972
C -5.339676 -0.037887 0.080661
C -4.639808 -1.239108 0.299218
C -3.244241 -1.349100 0.291686
C -3.302323 1.339625 -0.233137
C -4.692762 1.186132 -0.169983
H -6.439614 -0.055475 0.111962
H -5.225482 -2.153160 0.495818
H -2.751854 -2.316163 0.481412
H -2.864783 2.330216 -0.434352
H -5.317050 2.081933 -0.327123
C 0.080020 1.917796 0.048695
O 0.108735 3.090716 0.079101
S 0.037759 -2.331661 -0.255660
H 1.273360 -2.697075 0.191828
