30

Ir -0.000042 0.255676 -0.018126
P -2.290319 0.261452 -0.021988
C -5.426404 0.409976 -0.004802
C -4.701761 1.568083 -0.339122
C -3.303257 1.630521 -0.374788
C -3.419387 -1.004907 0.352538
C -4.804777 -0.809134 0.324408
H -6.525907 0.458692 -0.001349
H -5.267217 2.481598 -0.589511
H -2.800811 2.570671 -0.651078
H -2.992127 -1.987028 0.608974
H -5.448176 -1.668956 0.576729
P 2.290275 0.261318 -0.022088
C 5.426353 0.409864 -0.004754
C 4.804710 -0.809117 0.324899
C 3.419318 -1.004887 0.353018
C 3.303231 1.630251 -0.375372
C 4.701733 1.567835 -0.339595
H 6.525856 0.458583 -0.001244
H 5.448097 -1.668835 0.577604
H 2.992048 -1.986914 0.609797
H 2.800788 2.570276 -0.652105
H 5.267205 2.481245 -0.590326
C 0.000054 2.122333 0.017300
N 0.000181 3.324812 -0.010689
C 0.000397 4.623571 0.555342
H -0.892191 5.193466 0.222064
H 0.896420 5.190962 0.227011
H -0.002704 4.584609 1.666417
I 0.000001 -2.480887 -0.052938
