38

Ir 0.318316 -0.133157 0.037354
C -1.651895 -0.148403 0.029707
C -3.841529 0.162011 0.608604
C -3.819714 -0.605237 -0.525572
H -4.679794 0.533827 1.205480
H -4.635781 -1.039512 -1.110988
C -2.015704 -1.560682 -2.000747
H -1.007961 -1.189826 -2.269392
H -1.920636 -2.630134 -1.726947
H -2.714155 -1.439500 -2.851772
C -2.090681 1.205480 2.086672
H -1.019069 0.981173 2.254142
H -2.203892 2.293448 1.900261
H -2.682932 0.919101 2.977870
N -2.518477 0.428556 0.936244
N -2.486259 -0.779052 -0.868392
N 2.593369 -0.294792 0.079231
C 3.019209 -1.198003 -1.014771
C 3.259808 1.012960 -0.088724
C 2.987700 -0.873375 1.384890
H 2.970019 1.454886 -1.059985
H 4.369487 0.897777 -0.056009
H 2.940611 1.700433 0.716050
H 2.490101 -1.852647 1.510115
H 2.651140 -0.201200 2.196503
H 4.096100 -0.996816 1.440982
H 2.703365 -0.767686 -1.983782
H 2.522565 -2.177336 -0.886590
H 4.128392 -1.326631 -1.009519
C 0.322932 1.748281 -0.191418
N 0.281022 2.958433 -0.261816
C 0.251860 4.141074 -1.043918
H 1.157899 4.758888 -0.860821
H -0.625555 4.769392 -0.778324
H 0.199095 3.921400 -2.134178
C 0.262928 -2.165168 0.288195
C 0.226547 -3.398657 0.443836
H 0.194279 -4.469665 0.593257
