52

Ir -1.173111 -0.349848 -0.034276
P 1.155439 -0.019062 -0.013534
C 2.139280 -2.536297 -0.777200
C 2.140378 -1.563362 0.246610
C 1.741227 1.095682 1.336291
C 0.997001 1.114893 2.534564
C 1.422334 1.901324 3.615225
C 2.582989 2.684417 3.502991
C 3.318183 2.678540 2.306489
C 2.901952 1.886178 1.225104
C 1.913796 0.666952 -1.557701
C 1.145227 1.505205 -2.391527
C 1.712899 2.054949 -3.551346
C 3.045135 1.772476 -3.893155
C 3.814265 0.936118 -3.067836
C 3.253481 0.384081 -1.905606
C 2.822626 -1.830344 1.448430
C 3.495115 -3.051938 1.622915
C 3.497335 -4.011969 0.600221
C 2.819055 -3.749337 -0.603051
H 1.604231 -2.334923 -1.719140
H 0.072375 0.518290 2.598201
H 0.835003 1.912521 4.546207
H 2.910953 3.309369 4.348092
H 4.221879 3.300009 2.210174
H 3.478618 1.893401 0.287992
H 0.103283 1.732653 -2.116733
H 1.103743 2.708676 -4.194482
H 3.485348 2.202054 -4.806443
H 4.859022 0.707880 -3.330020
H 3.860635 -0.278400 -1.269962
H 2.830109 -1.080517 2.253691
H 4.024527 -3.250042 2.567657
H 4.028643 -4.966210 0.738241
H 2.820686 -4.496254 -1.412379
P -3.499022 -0.512806 -0.084913
C -4.273655 0.328523 -1.528281
C -4.334734 0.255898 1.364697
C -4.222527 -2.207165 -0.142363
H -3.930730 1.381628 -1.524129
H -5.380466 0.280095 -1.475530
H -3.919630 -0.153805 -2.459856
H -3.991225 1.306847 1.429865
H -4.021946 -0.275811 2.284091
H -5.438412 0.214945 1.262746
H -3.877877 -2.716932 -1.062838
H -5.330394 -2.167137 -0.133103
H -3.859101 -2.790124 0.725686
C -0.994095 -2.170180 0.064905
N -0.923355 -3.371211 0.290998
H -0.656015 -4.123085 -0.346542
Br -1.528860 2.194623 -0.000708
