26

Ir 0.005175 0.035322 0.019805
N -2.041708 0.030362 -0.023221
C -4.305059 -0.681295 0.036060
O -4.168516 0.716317 -0.366813
C -2.853857 0.963757 -0.419631
C -2.880123 -1.105259 0.440112
H -2.533418 -2.042370 -0.034075
H -2.740667 -1.218662 1.534491
H -4.697032 -1.242381 -0.837630
H -5.046785 -0.728293 0.856305
H -2.543184 1.954314 -0.779617
N 2.049781 -0.076644 0.002577
C 4.353306 0.468252 -0.205054
O 4.129718 -0.957029 -0.004853
C 2.804615 -1.135992 0.051949
C 2.951141 1.097030 -0.070438
H 2.666324 1.732476 -0.930517
H 2.823929 1.702495 0.850056
H 4.799959 0.600147 -1.212114
H 5.080047 0.811029 0.556861
H 2.424497 -2.165266 0.131655
C 0.006721 1.903605 0.171498
N -0.043963 3.125609 0.195327
H -0.074724 3.773122 0.985454
C -0.033580 -2.023826 -0.052319
N -0.036400 -3.206228 -0.086910
