26

Ir -0.101714 -0.473185 -0.034810
P 2.135875 -0.330232 -0.022135
C 5.271022 -0.258878 -0.034184
C 4.627501 -1.503278 0.087544
C 3.237050 -1.668865 0.103901
C 3.169016 1.057912 -0.164266
C 4.564798 0.952152 -0.153862
H 6.371083 -0.231061 -0.036875
H 5.253049 -2.407491 0.175731
H 2.806118 -2.677488 0.201179
H 2.676584 2.038044 -0.256734
H 5.145271 1.885599 -0.246865
N -2.239348 -0.558190 -0.052635
C -5.042579 -0.651419 -0.047614
C -4.351224 0.083835 -1.020399
C -2.952887 0.114674 -0.989033
C -2.904760 -1.274846 0.885800
C -4.301087 -1.340143 0.923534
H -6.142512 -0.687448 -0.045502
H -4.882794 0.642278 -1.803996
H -2.366920 0.696019 -1.714751
H -2.280975 -1.801025 1.622616
H -4.791947 -1.928940 1.711438
C 0.008672 -2.301437 -0.151658
O 0.075535 -3.470327 -0.214667
I -0.356134 2.231546 0.167045
