45

Ir 0.072546 0.226390 -0.029664
P -2.257783 -0.081999 0.009948
C -3.097558 0.994951 1.273430
C -2.869167 -1.780655 0.456998
C -2.712278 -2.849672 -0.629096
C -3.185108 0.310395 -1.555308
C -2.880542 1.689949 -2.142298
C -2.535206 0.810814 2.685101
H -2.944506 2.040812 0.932292
H -4.190733 0.794300 1.233730
H -2.280646 -2.066489 1.352990
H -3.932814 -1.674238 0.763921
H -2.900515 -0.482684 -2.277687
H -4.270485 0.182687 -1.346625
H -1.664601 -2.942093 -0.975981
H -3.011706 -3.839675 -0.229367
H -3.352084 -2.645603 -1.511721
H -3.135373 2.512058 -1.442963
H -1.802959 1.784247 -2.383541
H -3.458309 1.856516 -3.074228
H -2.701056 -0.217467 3.065386
H -1.440762 0.992011 2.688376
H -3.011425 1.514725 3.397703
C 2.134243 0.232860 -0.031721
C 4.350412 0.116601 0.720292
C 4.308429 -0.166587 -0.793155
H 4.844118 1.086758 0.961160
H 4.521457 -1.234805 -1.029251
C 2.414198 -0.057477 -2.475553
H 2.451445 -1.131954 -2.757479
H 1.353906 0.264187 -2.489774
H 3.005398 0.541072 -3.199789
C 2.473846 0.314303 2.427233
H 2.894475 1.231038 2.897773
H 1.367381 0.381385 2.407716
H 2.772279 -0.567307 3.033283
N 2.925966 0.175612 1.062080
N 2.914977 0.143776 -1.132291
H 5.015726 0.458571 -1.376283
H 4.867529 -0.677002 1.298411
C -0.119273 2.063526 -0.097783
O -0.243599 3.230836 -0.096163
N 0.383848 -1.867643 0.156297
O 0.149614 -2.438305 1.234009
O 0.846419 -2.492451 -0.817172
