30

Ir -0.333470 0.101438 0.000012
P -2.664494 -0.084547 -0.000068
C -3.323807 -1.004937 1.448616
C -3.323940 -1.006051 -1.447971
C -3.627578 1.485518 -0.000658
H -2.826472 -1.993948 1.470620
H -4.424239 -1.123894 1.379421
H -3.061174 -0.458593 2.374903
H -2.827058 -1.995308 -1.468996
H -3.061204 -0.460724 -2.374818
H -4.424425 -1.124550 -1.378617
H -3.359213 2.078197 0.895405
H -4.718222 1.286101 -0.000075
H -3.359972 2.077109 -0.897666
P 1.947505 -0.002608 0.000043
C 5.081694 -0.164258 -0.000096
C 4.343673 -1.363023 -0.000641
C 2.945627 -1.424009 -0.000632
C 3.089344 1.309103 0.000610
C 4.474881 1.104999 0.000509
H 6.180798 -0.222190 -0.000141
H 4.900781 -2.315298 -0.001108
H 2.417033 -2.390176 -0.001003
H 2.683633 2.333394 0.001069
H 5.128114 1.993959 0.000924
C -0.355669 1.985213 -0.000196
O -0.386882 3.154901 -0.000396
C -0.385886 -1.939271 0.000277
C -0.455951 -3.177899 0.000511
H -0.495595 -4.259008 0.000698
