25

Ir 0.086174 0.271432 -0.060087
N -1.953745 0.231943 -0.026278
C -2.662672 -0.750281 -0.652832
C -4.061595 -0.764244 -0.614687
N -4.794599 0.162778 0.023360
C -4.086972 1.125275 0.637704
C -2.689551 1.177561 0.625313
H -2.077821 -1.528416 -1.161969
H -4.603915 -1.573030 -1.134435
H -4.650058 1.905988 1.178225
H -2.133300 1.976575 1.133363
N 2.137680 0.241523 -0.066126
C 4.420555 0.774701 0.291737
O 4.238519 -0.492117 -0.411554
C 2.923869 -0.658233 -0.573036
C 2.985272 1.243259 0.617095
H 2.749389 2.256866 0.237950
H 2.749977 1.228812 1.700396
H 4.968551 1.458081 -0.388463
H 5.045894 0.578471 1.184147
H 2.577404 -1.561419 -1.095122
C 0.081315 2.089620 -0.267541
N 0.079807 3.318285 -0.280255
H 0.020607 3.915208 -1.110451
Br 0.144698 -2.249375 0.269659
