52

Ir -0.998464 -0.131643 0.012896
P 1.360059 -0.066383 0.018458
C 1.422939 -1.459246 -2.409295
C 2.102826 -1.249871 -1.189849
C 2.142928 -0.498522 1.632555
C 1.470435 -1.373894 2.510583
C 2.069040 -1.749557 3.722689
C 3.334731 -1.251183 4.071714
C 4.004748 -0.373467 3.203845
C 3.413911 0.003286 1.987807
C 2.103965 1.557487 -0.414803
C 1.903131 2.635533 0.474893
C 2.362678 3.916448 0.142749
C 3.035827 4.130492 -1.071810
C 3.248686 3.059050 -1.952451
C 2.780371 1.774436 -1.630868
C 3.316889 -1.922201 -0.947047
C 3.845124 -2.791112 -1.915257
C 3.171134 -2.989899 -3.131006
C 1.960208 -2.321113 -3.377318
H 0.461952 -0.946760 -2.581736
H 0.471991 -1.750780 2.242128
H 1.535931 -2.430831 4.403322
H 3.798195 -1.541739 5.027150
H 4.994015 0.025823 3.475714
H 3.938364 0.698876 1.314831
H 1.370398 2.473757 1.423779
H 2.175214 4.754689 0.829865
H 3.390321 5.138978 -1.334346
H 3.778282 3.221606 -2.903762
H 2.940549 0.941470 -2.331526
H 3.848535 -1.774850 0.005038
H 4.790598 -3.318399 -1.715269
H 3.588686 -3.672010 -3.887645
H 1.426171 -2.475097 -4.327686
P -3.280413 -0.186485 0.023651
C -6.412956 -0.258222 0.052921
C -5.768106 0.990459 -0.027896
C -4.378403 1.157318 -0.048949
C -4.315725 -1.577986 0.117102
C -5.712584 -1.476481 0.122564
H -7.513216 -0.282398 0.063549
H -6.395348 1.896573 -0.077854
H -3.932941 2.161880 -0.112191
H -3.828789 -2.563891 0.180528
H -6.297875 -2.409376 0.187407
C -0.914197 -1.979364 -0.044135
N -0.864995 -3.200752 0.009997
H -0.719646 -3.858060 -0.760185
N -1.102811 1.897822 0.027890
C -1.104568 3.103644 -0.007320
O -1.107243 4.303051 -0.029936
