32

Ir 0.081738 -0.230869 -0.049030
C 2.140790 -0.227927 -0.040121
C 4.303274 -0.644590 0.521091
C 4.306720 0.304492 -0.467175
H 5.127417 -1.115365 1.065369
H 5.134393 0.829843 -0.953003
C 2.555153 1.507967 -1.805845
H 3.183197 1.398904 -2.710951
H 1.498087 1.303936 -2.054797
H 2.637841 2.540661 -1.412168
C 2.524376 -1.941423 1.743001
H 1.499315 -1.674004 2.060761
H 2.505876 -2.955997 1.296035
H 3.202442 -1.933999 2.617084
N 2.974214 -0.954733 0.769573
N 2.981225 0.541898 -0.799482
P -2.210057 -0.052528 -0.002386
C -5.329944 0.265769 0.080075
C -4.790860 -1.002700 -0.202205
C -3.418002 -1.273715 -0.266710
C -3.130659 1.385198 0.318882
C -4.529892 1.397684 0.327432
H -6.424433 0.377861 0.108951
H -5.490671 -1.835851 -0.384151
H -3.067703 -2.293135 -0.494330
H -2.552898 2.300305 0.521105
H -5.036050 2.354288 0.541625
C 0.021537 -2.020888 -0.461742
O 0.003515 -3.166808 -0.718699
N 0.189606 1.763662 0.397415
C 0.702639 2.849667 0.527671
O 1.183250 3.943604 0.642560
