24

Ir -0.151279 0.043058 -0.000151
N -2.199745 -0.114434 -0.000029
C -4.418060 0.260257 0.000573
C -3.178468 0.866738 0.000010
N -4.168324 -1.099156 0.000662
C -2.824722 -1.299743 0.000051
H -4.869105 -1.840111 0.000154
H -5.430231 0.674761 0.001075
H -2.921763 1.930325 0.000095
H -2.291177 -2.257370 -0.000235
N 1.893912 -0.075348 -0.000216
C 4.706201 -0.388973 0.000676
C 4.118688 0.884808 0.000226
C 2.728012 1.005176 -0.000290
C 2.467482 -1.316758 0.000066
C 3.850668 -1.501191 0.000506
H 5.799623 -0.510558 0.001171
H 4.729419 1.799345 0.000206
H 2.244891 1.991139 -0.000709
H 1.740470 -2.144639 -0.000093
H 4.246393 -2.527425 0.000711
C -0.188796 1.849047 0.000030
O -0.249270 3.029255 0.000111
F -0.205867 -1.977619 -0.000628
