39

Ir 0.240259 -0.385248 -0.045502
N 2.358198 -0.174585 -0.060591
C 2.940678 0.903008 -0.646296
C 4.333404 1.057374 -0.644714
N 5.167275 0.173294 -0.074851
C 4.579892 -0.886233 0.504313
C 3.192403 -1.075155 0.519498
H 2.263954 1.641972 -1.098004
H 4.782051 1.941080 -1.130651
H 5.235606 -1.631417 0.987470
H 2.730087 -1.954354 0.990694
P -2.056152 -0.418120 0.001199
C -2.871752 -2.042507 0.404587
C -2.905687 0.095645 -1.571115
C -2.506306 1.465838 -2.122066
C -2.767959 0.728610 1.275807
C -2.245821 0.475788 2.691852
C -2.908223 -3.066229 -0.733084
H -2.312376 -2.446487 1.273385
H -3.900276 -1.811782 0.757090
H -2.669533 -0.698852 -2.309361
H -3.999505 0.037897 -1.373382
H -2.517869 1.760300 0.951998
H -3.874082 0.628127 1.218973
H -1.423529 1.501177 -2.350934
H -3.064616 1.678128 -3.056386
H -2.715028 2.291526 -1.412778
H -2.505389 -0.537990 3.060044
H -1.142068 0.573540 2.722875
H -2.676724 1.210944 3.401090
H -3.576876 -2.747658 -1.557377
H -1.901647 -3.239331 -1.161331
H -3.284423 -4.041250 -0.361921
C 0.357518 -2.219079 0.037385
N 0.480814 -3.418615 0.263929
H 0.534409 -4.185052 -0.411371
N 0.122890 1.656393 -0.022454
C -0.244574 2.794191 0.115063
S -0.766595 4.307654 0.288495
