33

Ir -0.442695 -0.186556 -0.016418
As 1.914084 -0.296071 0.006950
C 2.756898 -2.037550 -0.290716
C 2.729059 0.286022 1.692501
C 2.842237 0.847028 -1.288118
H 2.328413 -2.766863 0.422211
H 3.853512 -1.965303 -0.156686
H 2.525498 -2.372447 -1.319823
H 2.378574 -0.376802 2.505917
H 2.388105 1.318471 1.898569
H 3.834466 0.257774 1.624980
H 2.485020 0.598337 -2.305018
H 3.936378 0.688242 -1.219999
H 2.603003 1.905773 -1.071948
N -2.658175 0.158789 0.017262
C -3.440857 -1.096621 -0.012169
C -2.975109 0.902015 1.261759
C -3.013686 0.984537 -1.162627
H -2.704540 0.280723 2.135610
H -4.062579 1.145998 1.301080
H -2.378097 1.831438 1.286777
H -2.770785 0.425052 -2.085092
H -2.416625 1.913992 -1.143601
H -4.101650 1.228948 -1.151408
H -3.168609 -1.728072 0.852796
H -3.210256 -1.655708 -0.937204
H -4.532446 -0.873385 0.019505
C -0.564003 -2.013185 -0.040240
N -0.611116 -3.239218 0.064439
H -0.653571 -3.905332 -0.711763
N -0.256872 1.871193 0.020259
C 0.338255 2.925672 -0.018758
O 0.904415 3.982687 -0.059197
