34

Ir 0.020243 -0.093481 0.025499
C -1.970369 -0.157383 0.034700
C -4.154615 0.019835 0.667353
C -4.127356 -0.580616 -0.564187
H -4.994085 0.281603 1.318262
H -4.939417 -0.950618 -1.197341
C -2.307126 -1.274334 -2.171922
H -1.581955 -0.587734 -2.649275
H -1.777187 -2.219452 -1.942961
H -3.163594 -1.454675 -2.848098
C -2.410774 0.896861 2.258641
H -1.327037 0.702751 2.374421
H -2.577583 1.992987 2.225551
H -2.967388 0.462591 3.112006
N -2.834574 0.267988 1.017983
N -2.794470 -0.674629 -0.936163
N 2.162493 -0.153260 0.041207
C 4.981940 -0.243174 0.090755
C 4.304686 0.748159 -0.635527
C 2.906756 0.759470 -0.634579
C 2.819967 -1.116823 0.738130
C 4.216293 -1.189649 0.786405
H 6.081808 -0.277210 0.111900
H 4.849413 1.514228 -1.206469
H 2.340343 1.521694 -1.188041
H 2.176200 -1.858922 1.233410
H 4.690209 -1.992439 1.369948
C -0.000252 1.743489 -0.004474
N -0.006139 2.961031 0.042205
C -0.033258 4.140742 -0.755955
H 0.837829 4.790883 -0.524557
H -0.944594 4.739289 -0.539772
H -0.020158 3.917857 -1.846815
Cl 0.041881 -2.510127 0.013045
