30

Ir 0.093286 0.031374 -0.025570
N -1.934679 -0.034240 0.002824
C -2.607258 -1.034257 -0.640093
C -4.004112 -1.096260 -0.615795
N -4.776209 -0.199930 0.021615
C -4.105636 0.778992 0.652491
C -2.711498 0.877775 0.657676
H -1.988971 -1.779950 -1.156784
H -4.513061 -1.918611 -1.148004
H -4.699933 1.535561 1.194302
H -2.188441 1.687231 1.183898
N 2.138335 -0.034069 -0.046160
C 4.439791 0.358071 0.369099
O 4.205904 -0.854576 -0.408872
C 2.882293 -0.978126 -0.538431
C 3.040078 0.992560 0.519833
H 2.916053 1.935864 -0.050248
H 2.756409 1.196858 1.570035
H 5.165136 0.982989 -0.186955
H 4.892948 0.052562 1.334138
H 2.493421 -1.873378 -1.042464
C 0.088740 1.882968 0.030700
N 0.077750 3.089504 0.171583
C 0.020965 4.359569 -0.468736
H 0.875275 4.995380 -0.152829
H -0.905908 4.899787 -0.180330
H 0.040627 4.272074 -1.577614
N 0.128866 -2.013255 -0.054042
C 0.165477 -3.190655 0.221790
O 0.204335 -4.365676 0.456346
