44

Ir 0.104928 0.061983 0.008599
P -2.250039 -0.031739 0.016897
C -2.955686 0.339963 1.699732
C -3.086829 -1.641464 -0.412788
C -3.129672 -1.985401 -1.905087
C -3.152406 1.179166 -1.075858
C -2.753170 2.643999 -0.892729
C -2.435640 -0.601409 2.788782
H -2.660790 1.386554 1.925854
H -4.065646 0.318471 1.629843
H -2.524111 -2.421864 0.141141
H -4.111595 -1.602259 0.017767
H -2.938693 0.854902 -2.115459
H -4.242595 1.030530 -0.909253
H -2.113863 -1.972235 -2.348151
H -3.542242 -3.004913 -2.049647
H -3.773440 -1.286245 -2.476298
H -2.926653 3.003664 0.141662
H -1.678328 2.792217 -1.115739
H -3.338588 3.295812 -1.573157
H -2.743064 -1.651832 2.608913
H -1.326741 -0.579100 2.816047
H -2.819108 -0.305888 3.786844
C 2.152736 0.042946 -0.020426
C 4.382182 -0.371119 0.593917
C 4.357578 0.332553 -0.775528
H 4.799997 0.277811 1.398659
H 4.680297 -0.339441 -1.604923
C 2.459103 1.347108 -2.111219
H 2.691084 0.761346 -3.029243
H 1.358382 1.442171 -2.015679
H 2.921036 2.353184 -2.205808
C 2.520506 -1.298723 2.041306
H 2.862734 -0.756656 2.951812
H 1.413122 -1.328603 2.023839
H 2.915316 -2.336447 2.077374
N 2.960620 -0.625476 0.840737
N 2.940590 0.672265 -0.927782
H 4.996950 1.239355 -0.812754
H 4.966112 -1.315380 0.589801
C 0.063312 1.752969 0.745384
O 0.060780 2.816166 1.252657
S 0.188103 -2.190373 -0.835759
H 1.535150 -2.406145 -0.861719
