42

Ir -0.229298 -0.480514 -0.048716
P 1.797068 0.519269 0.038640
C 2.822966 -0.045597 1.481696
C 1.791991 2.370627 0.214768
C 1.487036 3.151721 -1.067238
C 2.930975 0.257851 -1.415379
C 3.211943 -1.197774 -1.788838
C 2.151968 0.201662 2.834984
H 2.989158 -1.132637 1.329121
H 3.813280 0.455742 1.413269
H 1.032962 2.593158 0.991748
H 2.782853 2.656556 0.630819
H 2.447650 0.782998 -2.264766
H 3.872034 0.807473 -1.190724
H 0.580299 2.765192 -1.571895
H 1.293023 4.216095 -0.828556
H 2.329898 3.114592 -1.786333
H 3.671022 -1.765082 -0.953887
H 2.275085 -1.716005 -2.074378
H 3.908772 -1.250623 -2.650113
H 1.998940 1.282440 3.031134
H 1.158126 -0.289409 2.868882
H 2.770355 -0.203921 3.661400
N -2.279513 -1.502876 -0.077203
C -2.315416 -2.434770 -1.227935
C -2.426119 -2.260516 1.188515
C -3.406712 -0.549697 -0.201025
H -1.607263 -2.996837 1.283414
H -3.406271 -2.792794 1.213754
H -2.369047 -1.560060 2.042126
H -3.298566 0.041437 -1.127739
H -3.402558 0.151741 0.651445
H -4.372161 -1.105682 -0.221984
H -1.505263 -3.180013 -1.131822
H -2.163411 -1.867442 -2.164845
H -3.295977 -2.965172 -1.272218
C 0.593288 -2.119108 0.082503
N 1.104726 -3.209491 0.338625
H 1.496290 -3.870535 -0.338167
N -1.180271 1.311571 -0.077729
C -1.662726 2.409798 0.004379
S -2.305568 3.883733 0.106714
