37

Ir 0.015253 -0.235195 -0.074139
As 2.449040 0.041602 0.028252
C 3.105344 0.600950 1.789489
C 3.177023 1.463216 -1.110679
C 3.621802 -1.472997 -0.394777
H 2.524236 1.495331 2.085019
H 4.187662 0.835058 1.762035
H 2.909883 -0.207790 2.519007
H 2.606458 2.385234 -0.888728
H 3.017054 1.191986 -2.171618
H 4.256171 1.622657 -0.918713
H 3.338181 -2.329834 0.245787
H 4.686333 -1.214058 -0.234086
H 3.462623 -1.760686 -1.451791
C -2.014347 -0.256168 -0.064251
C -4.223027 0.430409 -0.455612
C -4.233709 -0.773282 0.500235
H -4.505227 1.380846 0.054911
H -4.641868 -1.694626 0.021028
C -2.366198 -1.930365 1.754330
H -2.580671 -2.965532 1.405228
H -1.272986 -1.818120 1.884292
H -2.873424 -1.772087 2.729644
C -2.378716 1.464199 -1.837845
H -2.502262 2.500091 -1.450352
H -1.306050 1.290694 -2.045579
H -2.962689 1.361049 -2.777156
N -2.818947 0.482355 -0.871253
N -2.809519 -0.943479 0.796555
H -4.816967 -0.590595 1.426464
H -4.896497 0.303248 -1.328407
C 0.114809 -2.013087 -0.532633
N 0.182233 -3.226555 -0.719893
H 0.218086 -3.691101 -1.631266
N -0.062651 1.760465 0.446216
C -0.539580 2.856878 0.624408
O -0.982381 3.960924 0.792913
