49

Ir 1.187377 -0.032147 0.009084
N 3.327849 0.070212 -0.015028
C 3.951938 1.269362 0.103870
C 5.350149 1.351438 0.072187
N 6.149049 0.281187 -0.069942
C 5.517166 -0.897422 -0.186521
C 4.122353 -1.019618 -0.162267
H 3.265328 2.129292 0.215154
H 5.836932 2.337433 0.169673
H 6.139515 -1.801420 -0.305758
H 3.628300 -1.996833 -0.258057
P -1.087051 0.012847 -0.012272
C -1.276198 -1.387387 -2.455567
C -1.904462 -0.453574 -1.606120
C -1.788761 1.689772 0.323600
C -1.567743 2.711955 -0.629213
C -2.042441 4.010025 -0.390172
C -2.734914 4.302777 0.797128
C -2.951377 3.292210 1.746686
C -2.480165 1.989534 1.513977
C -1.898448 -1.065868 1.249811
C -1.185302 -1.345855 2.434527
C -1.775301 -2.119337 3.445737
C -3.074139 -2.626140 3.278256
C -3.783135 -2.358312 2.095539
C -3.200575 -1.580322 1.083366
C -3.159954 0.079124 -1.972335
C -3.778126 -0.324030 -3.166292
C -3.151196 -1.260768 -4.003643
C -1.900937 -1.790322 -3.645513
H -0.288397 -1.788270 -2.185118
H -1.019232 2.488131 -1.556738
H -1.866384 4.799367 -1.136872
H -3.104925 5.322868 0.982279
H -3.492869 3.515969 2.678643
H -2.653410 1.201006 2.261605
H -0.158037 -0.959363 2.540239
H -1.211365 -2.334915 4.366196
H -3.533360 -3.239795 4.068645
H -4.797395 -2.762938 1.955778
H -3.759705 -1.383285 0.156418
H -3.653933 0.821059 -1.326342
H -4.755064 0.100605 -3.444459
H -3.635741 -1.573573 -4.941413
H -1.400544 -2.518962 -4.301506
C 1.161137 -1.867146 -0.034095
O 1.136974 -3.046448 -0.045710
O 1.334122 1.976070 0.092162
H 0.533527 2.428921 0.411744
