27

Ir 0.059979 0.065428 -0.000139
P 2.304150 -0.222484 0.000135
C 2.838819 -1.238139 -1.438514
C 2.838595 -1.237738 1.439135
C 3.420728 1.237398 0.000050
H 2.175042 -2.125214 -1.442149
H 3.901627 -1.545470 -1.361252
H 2.673236 -0.668763 -2.373114
H 2.175224 -2.125113 1.442642
H 2.672291 -0.668320 2.373582
H 3.901592 -1.544540 1.362391
H 3.210549 1.852978 -0.896087
H 4.485675 0.929613 0.000145
H 3.210439 1.853178 0.896022
N -2.039590 -0.093562 -0.000205
C -4.387303 0.228570 -0.000173
O -4.009967 -1.182554 0.000440
C -2.673032 -1.222366 -0.000051
C -3.038204 0.989113 0.000653
H -2.889298 1.627066 0.895064
H -2.889239 1.628770 -0.892507
H -5.006121 0.412076 0.900657
H -5.004571 0.411644 -0.902182
H -2.155713 -2.194666 -0.000191
C 0.147950 1.875677 -0.000135
O 0.220879 3.053432 -0.000083
F 0.007018 -1.961234 -0.000177
