32

Ir 0.047723 0.042466 0.026567
P -2.203569 0.181082 0.059968
C -2.985345 -0.628465 1.523502
C -3.062982 -0.642146 -1.352523
C -2.959951 1.863856 0.067864
H -2.671486 -1.690127 1.546226
H -4.092088 -0.567517 1.477635
H -2.618310 -0.137112 2.445025
H -2.794757 -1.716303 -1.361751
H -2.715836 -0.187535 -2.300226
H -4.163886 -0.537100 -1.265829
H -2.571540 2.431437 0.935453
H -4.065589 1.804678 0.121903
H -2.662833 2.397378 -0.855973
N 2.158559 -0.277239 0.030187
C 4.389144 0.001187 0.169899
C 3.169325 0.644411 0.238401
N 4.093778 -1.325636 -0.083672
C 2.743001 -1.461906 -0.162609
H 4.768242 -2.083188 -0.192493
H 5.414854 0.365299 0.280172
H 2.944278 1.698953 0.425761
H 2.195468 -2.394229 -0.341091
C 0.230152 1.876067 0.096369
N 0.352445 3.082783 0.215550
C 0.349054 4.306349 -0.516319
H 1.090403 5.017995 -0.096608
H -0.646121 4.799378 -0.447975
H 0.582636 4.155231 -1.594149
N -0.154509 -2.012516 -0.084278
C -0.750525 -3.063746 -0.150034
O -1.312213 -4.123593 -0.219132
