31

Ir -0.148401 0.167067 -0.028116
P -2.428641 0.092305 -0.025242
C -3.137985 -0.107071 1.661401
C -3.160755 -1.322488 -0.952535
C -3.316292 1.551071 -0.717144
H -2.656117 -1.007035 2.091718
H -4.240233 -0.227751 1.631749
H -2.868318 0.772441 2.277207
H -2.807467 -2.261229 -0.484183
H -2.813230 -1.293694 -2.002966
H -4.268431 -1.281404 -0.920844
H -3.026248 2.459235 -0.155065
H -4.414046 1.410415 -0.654818
H -3.016732 1.691861 -1.773709
N 1.987929 0.078146 0.026377
C 4.796217 -0.024744 0.044419
C 4.048250 -0.917588 -0.735099
C 2.650652 -0.839095 -0.722471
C 2.710415 0.941165 0.784686
C 4.107418 0.920019 0.820541
H 5.896144 -0.063743 0.049914
H 4.535046 -1.681821 -1.358024
H 2.008816 -1.543561 -1.276348
H 2.129535 1.665946 1.372666
H 4.642191 1.641880 1.454567
C -0.130607 2.010216 -0.238131
N -0.098329 3.208040 -0.474687
H -0.179549 4.014764 0.145970
N -0.213778 -1.953554 0.212414
O 0.334842 -2.684160 -0.635872
O -0.859777 -2.458638 1.151246
