30

Ir -0.000061 -0.524392 0.000135
P 2.345014 -0.441048 -0.000130
C 3.091375 0.415966 1.449038
C 3.090328 0.416062 -1.449807
C 3.205451 -2.072807 -0.000345
H 2.694088 1.449033 1.484981
H 4.197926 0.432332 1.375503
H 2.784131 -0.109357 2.373976
H 2.691685 1.448599 -1.486071
H 2.783616 -0.110105 -2.374439
H 4.196868 0.433820 -1.376427
H 2.901234 -2.647562 0.895821
H 4.306513 -1.942859 -0.000829
H 2.900436 -2.647799 -0.896081
P -2.345193 -0.440549 -0.000166
C -3.090555 0.415772 -1.450273
C -3.090820 0.417621 1.448736
C -3.206175 -2.072015 0.000814
H -2.691845 1.448245 -1.487303
H -4.197082 0.433632 -1.376844
H -2.783867 -0.110953 -2.374602
H -2.692085 1.450142 1.484442
H -2.784255 -0.107960 2.373753
H -4.197341 0.435395 1.375154
H -2.901671 -2.647681 -0.894665
H -4.307186 -1.941615 0.000553
H -2.901952 -2.646346 0.897247
C -0.000356 -2.346447 0.000265
O -0.000583 -3.522326 0.000411
I 0.000328 2.228620 0.000113
