30

Ir -0.022767 -0.218516 -0.025129
P 2.239354 -0.345921 0.028855
C 2.979370 0.358240 1.564917
C 3.107111 0.591484 -1.303399
C 3.007162 -2.017028 -0.078444
H 2.654431 1.412301 1.661930
H 4.087221 0.310771 1.536852
H 2.600104 -0.206175 2.438367
H 2.847175 1.664815 -1.225443
H 2.766237 0.219001 -2.288419
H 4.206461 0.472479 -1.217097
H 2.600031 -2.658738 0.726300
H 4.110023 -1.952199 0.010816
H 2.741001 -2.475510 -1.050506
N -2.121126 0.090272 -0.016384
C -4.475436 -0.186042 0.103681
O -4.074720 1.215177 0.018837
C -2.737611 1.228176 -0.015409
C -3.147056 -0.970624 -0.001001
H -3.060385 -1.571712 -0.929034
H -2.964398 -1.653917 0.851326
H -5.186417 -0.385941 -0.721716
H -4.999673 -0.326612 1.070747
H -2.222232 2.199857 -0.040220
C -0.194972 -2.044146 -0.042318
N -0.315357 -3.264182 0.062560
H -0.341840 -3.930761 -0.714376
N 0.165768 1.839737 -0.006021
C 0.780645 2.883027 -0.019908
O 1.362816 3.932018 -0.035988
