35

Ir -0.003215 -0.086505 -0.004358
As -2.405464 -0.172242 -0.025875
C -3.381603 1.526714 -0.134754
C -3.254528 -1.010034 1.534024
C -3.208882 -1.176394 -1.510041
H -3.136337 2.133170 0.757978
H -4.474307 1.353592 -0.183769
H -3.040738 2.072478 -1.034961
H -3.044481 -0.383749 2.421835
H -2.788746 -2.001445 1.690507
H -4.348012 -1.113591 1.389749
H -2.954245 -0.660899 -2.455504
H -4.308733 -1.247396 -1.397476
H -2.757775 -2.186545 -1.531808
As 2.412531 -0.132044 -0.025535
C 3.196547 -1.082714 -1.550085
C 3.267322 -1.043687 1.485684
C 3.358812 1.584611 -0.068265
H 2.763303 -2.101458 -1.558499
H 4.300672 -1.128381 -1.470783
H 2.899833 -0.563982 -2.481254
H 2.825888 -2.056590 1.557440
H 3.031194 -0.489409 2.413700
H 4.364404 -1.106803 1.345478
H 3.003457 2.162179 -0.942671
H 4.453500 1.429905 -0.131727
H 3.110971 2.148755 0.851102
C -0.020982 1.767075 -0.160083
N -0.033432 2.973084 -0.342077
C -0.068873 4.200701 0.387943
H -0.965703 4.793806 0.107399
H 0.816876 4.824880 0.142145
H -0.087473 4.041901 1.489788
S 0.149869 -2.481425 0.211596
H -1.139922 -2.924520 0.155868
