26

Ir -0.169521 0.081353 0.003780
N 1.880671 -0.004738 0.003417
C 3.991675 -0.732453 0.292953
C 2.661796 -1.061003 0.454289
N 4.006276 0.534202 -0.257551
C 2.720769 0.947501 -0.423488
H 4.833402 1.077790 -0.502782
H 4.907099 -1.286607 0.519311
H 2.192767 -1.976442 0.826904
H 2.428822 1.920830 -0.828744
N -2.352102 0.006229 0.004770
C -2.815174 -0.641158 -1.255079
C -2.804185 -0.801574 1.172340
C -2.980727 1.349250 0.096494
H -2.347499 -1.805597 1.107929
H -3.915697 -0.878450 1.174188
H -2.461927 -0.311091 2.102121
H -2.668726 1.966512 -0.765119
H -2.658357 1.848477 1.027928
H -4.089979 1.251638 0.096151
H -2.360226 -1.645354 -1.327318
H -2.479896 -0.033284 -2.115439
H -3.926857 -0.716043 -1.257948
C -0.103569 1.885496 0.116667
O -0.006819 3.061673 0.176087
Cl -0.183099 -2.329183 -0.160967
