28

Ir 0.222415 -0.182738 -0.034771
N 2.349301 -0.089479 0.003847
C 3.000320 1.007013 -0.459349
C 4.400143 1.073243 -0.428687
N 5.168935 0.085502 0.054974
C 4.511838 -0.990125 0.516821
C 3.115366 -1.095716 0.496088
H 2.366255 1.827291 -0.826028
H 4.909747 1.971992 -0.816906
H 5.114252 -1.818488 0.928225
H 2.593609 -1.989084 0.867363
P -2.010471 -0.191145 -0.015379
C -5.140800 -0.230452 0.045377
C -4.481358 1.011079 -0.013816
C -3.090202 1.169951 -0.047483
C -3.057915 -1.573686 0.061171
C -4.452873 -1.456840 0.081966
H -6.240899 -0.241908 0.067257
H -5.097181 1.925863 -0.034728
H -2.658448 2.181704 -0.086895
H -2.581785 -2.565475 0.102268
H -5.045976 -2.385440 0.133744
C 0.238676 -2.025339 -0.158392
N 0.258864 -3.248784 -0.133260
H 0.264759 -3.900490 -0.921852
N 0.246166 1.860310 0.068260
C -0.241580 2.965033 0.164144
O -0.695722 4.069281 0.248981
