34

Ir -0.217085 0.145751 -0.066600
P -2.544532 -0.092382 0.059955
C -3.158152 -0.390549 1.771332
C -3.177986 -1.552988 -0.867702
C -3.592785 1.298659 -0.545795
H -2.582799 -1.248463 2.171707
H -4.245410 -0.608698 1.788010
H -2.942370 0.499135 2.394138
H -2.602622 -2.430363 -0.511913
H -2.974684 -1.412491 -1.947081
H -4.264140 -1.707556 -0.705347
H -3.348443 2.212963 0.029540
H -4.673244 1.072411 -0.441550
H -3.355664 1.493301 -1.610017
C 1.836514 0.065577 -0.057920
C 3.987694 -0.778939 -0.427614
C 4.075642 0.408529 0.546652
H 4.181567 -1.754163 0.077144
H 4.565757 1.300196 0.089573
C 2.265180 1.694753 1.772924
H 2.636258 2.703373 1.480934
H 1.158000 1.708731 1.809872
H 2.662910 1.451490 2.781206
C 2.063803 -1.675552 -1.811942
H 2.024761 -2.695862 -1.371387
H 1.029659 -1.372377 -2.067142
H 2.690349 -1.691054 -2.728210
N 2.591091 -0.714029 -0.868343
N 2.662487 0.690086 0.814766
H 4.621449 0.166852 1.482076
H 4.686530 -0.695540 -1.285420
C -0.293761 1.815057 -0.790390
O -0.360076 2.897223 -1.249410
Cl -0.136217 -2.067436 0.919164
