31

Ir 0.027636 0.088939 -0.023820
C -1.974445 0.013335 -0.007925
C -4.159673 0.256049 0.590770
C -4.125534 -0.474725 -0.568134
H -5.002629 0.587921 1.204049
H -4.934157 -0.909763 -1.163092
C -2.293568 -1.334406 -2.081964
H -1.624234 -0.676562 -2.668802
H -1.702891 -2.208253 -1.740498
H -3.152542 -1.654362 -2.700738
C -2.423274 1.305482 2.083637
H -1.325198 1.191706 2.173509
H -2.671850 2.379454 1.960667
H -2.917513 0.913625 2.994155
N -2.841772 0.541634 0.919156
N -2.790668 -0.608947 -0.919541
N 2.160080 0.018832 0.002051
C 4.977626 -0.078788 0.061450
C 4.300935 0.597294 -0.965760
C 2.903451 0.623728 -0.961341
C 2.816848 -0.633331 0.998121
C 4.213258 -0.703061 1.057220
H 6.077272 -0.114773 0.085589
H 4.845840 1.105868 -1.774226
H 2.335815 1.142803 -1.746968
H 2.171640 -1.122922 1.743216
H 4.687631 -1.244978 1.888359
C -0.000601 1.886749 -0.428838
O -0.030877 3.032031 -0.698200
S -0.056061 -2.265921 0.532702
H 1.125209 -2.650209 -0.033742
