39

Ir 0.056276 0.087366 -0.012729
P -2.242549 -0.189171 0.023204
C -3.073632 0.673352 1.442881
C -2.766033 -1.959471 0.211085
C -2.404143 -2.858430 -0.974840
C -3.208111 0.391853 -1.455584
C -3.014769 1.865687 -1.817260
C -2.499053 0.279288 2.805975
H -2.923099 1.758544 1.260709
H -4.166971 0.478505 1.380401
H -2.247661 -2.318436 1.123809
H -3.858776 -1.960983 0.421304
H -2.882001 -0.255838 -2.295660
H -4.278240 0.155856 -1.261879
H -1.307499 -2.841985 -1.124402
H -2.713506 -3.903904 -0.770352
H -2.908630 -2.544983 -1.911496
H -3.318516 2.544444 -0.994713
H -1.954618 2.084573 -2.051114
H -3.623234 2.130269 -2.705890
H -2.688988 -0.787544 3.041803
H -1.400405 0.434460 2.820820
H -2.951239 0.886002 3.616678
As 2.496536 -0.059337 -0.021528
C 3.121343 -1.144593 -1.524155
C 3.155020 -1.091653 1.503531
C 3.660231 1.515806 -0.061688
H 2.492591 -2.055234 -1.508472
H 4.193545 -1.402733 -1.422817
H 2.945187 -0.596946 -2.469121
H 2.537435 -2.009723 1.525960
H 2.987796 -0.517379 2.434227
H 4.228571 -1.340215 1.392852
H 3.428067 2.106857 -0.968231
H 4.727692 1.221152 -0.068241
H 3.448067 2.138711 0.828287
C -0.077013 1.896689 -0.021583
O -0.148703 3.074205 -0.008337
F 0.331144 -1.926637 0.051620
