52

Ir 1.326778 0.024906 0.045936
P -1.021924 0.077787 0.015563
C -1.289326 -1.643869 2.200617
C -1.807387 -1.326773 0.926567
C -1.706233 -0.079072 -1.692990
C -1.205366 -1.122149 -2.504773
C -1.688428 -1.289995 -3.809757
C -2.658293 -0.411645 -4.324380
C -3.147466 0.632968 -3.525497
C -2.677642 0.799230 -2.211644
C -1.876447 1.554342 0.715553
C -1.202463 2.794751 0.686828
C -1.848505 3.943349 1.172339
C -3.151866 3.864942 1.689047
C -3.817045 2.627770 1.726854
C -3.183381 1.473195 1.243234
C -2.885457 -2.072466 0.411605
C -3.439433 -3.122094 1.164086
C -2.925636 -3.429775 2.433348
C -1.850172 -2.686698 2.951307
H -0.430206 -1.071144 2.586566
H -0.433850 -1.800501 -2.107336
H -1.296952 -2.108178 -4.433809
H -3.028829 -0.539898 -5.353202
H -3.902522 1.327672 -3.924944
H -3.066632 1.618577 -1.588650
H -0.166728 2.833261 0.303915
H -1.320937 4.909716 1.151905
H -3.650833 4.769364 2.070943
H -4.835907 2.559272 2.138789
H -3.706455 0.505187 1.279704
H -3.289067 -1.837975 -0.585216
H -4.278491 -3.703783 0.751928
H -3.361165 -4.253260 3.020218
H -1.442053 -2.925549 3.945758
P 3.643029 0.165515 0.033594
C 4.241219 1.297943 1.352395
C 4.252773 0.957986 -1.509944
C 4.641518 -1.367905 0.212933
H 3.631828 2.217400 1.249210
H 5.321554 1.526700 1.250231
H 4.039002 0.848350 2.343507
H 3.677599 1.898668 -1.616231
H 4.024839 0.304753 -2.374050
H 5.340794 1.169473 -1.468497
H 4.413949 -1.831228 1.192655
H 5.727805 -1.156942 0.144991
H 4.346364 -2.083944 -0.578596
C 1.274930 -1.794405 0.106379
N 1.262323 -3.020340 -0.004512
H 1.091012 -3.672738 0.766007
F 1.553534 2.052671 -0.099253
