52

Ir -1.241072 -0.156834 0.004213
P 1.026696 -0.156948 -0.000782
C 1.578155 2.115663 1.542033
C 1.811445 1.492769 0.296085
C 1.782965 -0.714043 -1.596141
C 1.014974 -0.574181 -2.770533
C 1.552886 -0.943913 -4.013089
C 2.855485 -1.462876 -4.090507
C 3.619796 -1.614451 -2.921135
C 3.087526 -1.243012 -1.676926
C 1.841505 -1.230000 1.268270
C 1.191611 -2.426688 1.642099
C 1.798432 -3.282814 2.574093
C 3.041982 -2.956656 3.140601
C 3.685365 -1.763688 2.773642
C 3.089312 -0.900467 1.840171
C 2.558842 2.170600 -0.684517
C 3.071962 3.452896 -0.420975
C 2.848846 4.062440 0.823000
C 2.101503 3.388636 1.805954
H 0.976107 1.595072 2.303776
H -0.013887 -0.186440 -2.681979
H 0.946347 -0.833987 -4.925375
H 3.274980 -1.759147 -5.064575
H 4.637425 -2.031266 -2.976840
H 3.687134 -1.374306 -0.763184
H 0.208275 -2.659649 1.195001
H 1.288443 -4.214632 2.864607
H 3.509904 -3.631154 3.874694
H 4.657499 -1.499110 3.218180
H 3.595418 0.037465 1.563964
H 2.739644 1.696779 -1.661093
H 3.653420 3.975740 -1.196099
H 3.256591 5.064217 1.029014
H 1.920337 3.861961 2.783534
N -3.334921 -0.344839 0.030317
C -5.680820 -0.028134 -0.004537
O -5.303547 -1.435295 0.093532
C -3.965733 -1.474356 0.075240
C -4.335858 0.735701 0.038731
H -4.200890 1.345984 0.955158
H -4.174133 1.403952 -0.829896
H -6.359141 0.200916 0.840584
H -6.235816 0.104632 -0.955607
H -3.442979 -2.443129 0.105236
C -1.274846 1.673000 -0.110899
N -1.339988 2.873572 -0.295254
C -1.164040 4.150232 0.309014
H -1.903476 4.878047 -0.086348
H -0.150797 4.547391 0.082059
H -1.268417 4.110908 1.416697
F -1.328326 -2.193173 0.073790
