36

Ir 0.304317 -0.148284 0.025279
P -0.483964 1.959459 0.040905
C -1.580540 2.336767 1.474814
C -1.550856 2.385506 -1.402037
C 0.743225 3.334989 0.074447
H -2.446690 1.646423 1.449642
H -1.942570 3.384438 1.432973
H -1.020420 2.169499 2.414673
H -2.426746 1.707100 -1.412115
H -0.976161 2.236272 -2.336142
H -1.899816 3.436502 -1.338598
H 1.395670 3.220523 0.961414
H 0.232000 4.317859 0.109415
H 1.375758 3.279715 -0.832705
N 0.837307 -2.347622 0.022712
C 2.296086 -2.585946 0.057864
C 0.213210 -2.961284 1.219397
C 0.272082 -2.955002 -1.205762
H 0.631787 -2.493201 2.129783
H 0.409738 -4.059062 1.242178
H -0.876205 -2.778012 1.196700
H 0.733030 -2.481183 -2.092462
H -0.817216 -2.772453 -1.234757
H 0.471056 -4.052339 -1.225516
H 2.728559 -2.121060 0.962611
H 2.768142 -2.127613 -0.830518
H 2.513380 -3.679614 0.064836
C 2.057047 0.443252 0.096013
N 3.191294 0.854534 0.226277
C 4.372392 1.350648 -0.386579
H 5.275903 0.896711 0.072480
H 4.454609 2.450710 -0.244515
H 4.397275 1.143520 -1.480041
N -1.657727 -0.742709 -0.052678
C -2.860270 -0.691677 -0.083574
S -4.470277 -0.599480 -0.125691
