30

Ir -0.141238 0.089947 0.020214
P 2.082510 0.020310 0.033591
C 5.222193 -0.025768 0.035702
C 4.566759 1.205783 0.214098
C 3.174708 1.359072 0.231706
C 3.131790 -1.351044 -0.163463
C 4.526106 -1.236454 -0.141951
H 6.322546 -0.043963 0.037324
H 5.185805 2.108725 0.351668
H 2.731447 2.355288 0.384796
H 2.640582 -2.326937 -0.299190
H 5.115847 -2.159721 -0.273239
N -2.277074 0.104154 0.020385
C -5.086383 0.103493 0.051840
C -4.376937 -0.747883 -0.806354
C -2.977788 -0.727043 -0.791788
C -2.962095 0.932850 0.847945
C -4.359247 0.956476 0.895713
H -6.186910 0.102450 0.064553
H -4.895353 -1.437319 -1.488109
H -2.376077 -1.400310 -1.418984
H -2.351510 1.589216 1.484173
H -4.863058 1.640900 1.593276
C -0.101817 1.943496 -0.033026
N -0.097251 3.152255 0.001683
C -0.053406 4.395785 -0.684756
H 0.877074 4.946562 -0.430505
H -0.906205 5.038596 -0.381288
H -0.089685 4.262069 -1.788145
Br -0.261996 -2.444388 0.057567
