49

Ir -0.015008 0.005418 0.040544
P 2.341374 0.007936 -0.049261
C 3.120449 -0.660312 -1.604803
C 3.157541 -0.952529 1.312670
C 2.774142 -0.452051 2.707164
C 3.150862 1.680936 0.083298
C 2.985758 2.582552 -1.142897
C 2.937370 -2.155053 -1.867581
H 2.671484 -0.065687 -2.427516
H 4.199043 -0.388914 -1.559970
H 2.808378 -1.998179 1.179821
H 4.257155 -0.932786 1.146230
H 2.709286 2.162322 0.980216
H 4.226550 1.505998 0.304843
H 1.671606 -0.467826 2.828473
H 3.218132 -1.098226 3.491509
H 3.123035 0.584521 2.892654
H 3.520703 2.181359 -2.026772
H 1.920170 2.709143 -1.417587
H 3.396407 3.591951 -0.937414
H 3.422602 -2.776328 -1.088154
H 1.864793 -2.434027 -1.891947
H 3.390974 -2.429858 -2.841845
P -2.358066 0.026668 -0.052391
C -3.337592 -1.557390 0.024261
C -3.074994 0.809115 -1.584837
C -2.567248 2.211127 -1.921795
C -3.120337 1.022228 1.322513
C -2.731272 0.518457 2.714823
C -3.213642 -2.468510 -1.200986
H -3.002794 -2.083996 0.943211
H -4.395623 -1.264048 0.201702
H -2.834117 0.110126 -2.412404
H -4.181184 0.796069 -1.463429
H -2.759351 2.062107 1.176636
H -4.223062 1.035412 1.178797
H -1.477112 2.199701 -2.116053
H -3.075184 2.596770 -2.829224
H -2.750230 2.937026 -1.104178
H -3.119501 -0.502082 2.910496
H -1.627222 0.480928 2.818373
H -3.135223 1.184686 3.504012
H -3.665824 -2.010392 -2.103241
H -2.151387 -2.695457 -1.421990
H -3.739186 -3.428933 -1.022650
C -0.058211 1.838735 0.180322
O -0.091738 3.000104 0.381509
S 0.175438 -2.390911 0.229542
H -1.067371 -2.747689 0.652613
