36

Ir -0.162419 -0.112276 -0.000013
N -2.301488 -0.129183 0.018210
C -4.592813 -0.701168 -0.276408
O -4.416706 0.533205 0.481441
C -3.092839 0.742480 0.553809
C -3.154998 -1.201203 -0.538853
H -2.915611 -1.342337 -1.611082
H -2.911519 -2.154546 -0.026478
H -5.153076 -0.451422 -1.200752
H -5.205691 -1.391272 0.336724
H -2.759671 1.654782 1.069457
C 1.813099 -0.179702 0.016805
C 4.061831 0.158409 -0.592677
C 4.010095 -0.640492 0.716539
H 4.398603 -0.466198 -1.455000
H 4.331244 -0.028713 1.593864
C 2.108378 -1.692441 1.979991
H 2.259227 -1.109738 2.918233
H 1.028240 -1.890641 1.843207
H 2.649496 -2.657525 2.072342
C 2.269973 1.300324 -1.937681
H 2.627088 0.805255 -2.870042
H 1.163020 1.339697 -1.957645
H 2.686419 2.331069 -1.908260
N 2.664912 0.548369 -0.769712
N 2.589383 -0.966658 0.824667
H 4.638906 -1.555151 0.698546
H 4.731310 1.042716 -0.539822
C -0.140205 1.687755 0.460146
N -0.132269 2.863608 0.798764
C -0.022747 4.151361 0.180874
H 0.871946 4.688699 0.562722
H -0.902371 4.781220 0.433264
H 0.054487 4.091763 -0.928572
S -0.257777 -2.409788 -0.724098
H 1.069848 -2.716348 -0.774403
