43

Ir 0.100154 0.100937 0.032438
P -2.251592 -0.072763 -0.008666
C -3.003135 0.245845 1.664432
C -2.987492 -1.717141 -0.476726
C -2.987372 -2.035760 -1.974305
C -3.173378 1.119973 -1.103076
C -2.825034 2.593481 -0.885085
C -2.462213 -0.689989 2.748293
H -2.758238 1.300511 1.911873
H -4.109640 0.177741 1.573927
H -2.375248 -2.468762 0.062830
H -4.016866 -1.747357 -0.056421
H -2.925894 0.820385 -2.142646
H -4.261558 0.933383 -0.964587
H -1.957665 -1.989459 -2.379440
H -3.368193 -3.063969 -2.143516
H -3.636039 -1.346803 -2.552383
H -3.040680 2.930344 0.149088
H -1.748802 2.777963 -1.072192
H -3.408922 3.239075 -1.572581
H -2.720595 -1.749483 2.545968
H -1.355948 -0.619804 2.797831
H -2.875733 -0.428241 3.743684
C 2.156725 0.085051 0.026331
C 4.339072 -0.664607 0.408641
C 4.378118 0.500399 -0.595913
H 5.037754 -0.533395 1.260523
H 4.926546 0.254404 -1.528687
C 2.510576 1.683908 -1.843983
H 2.892597 1.417658 -2.852595
H 1.402423 1.665580 -1.854912
H 2.860288 2.710911 -1.592931
C 2.454779 -1.605554 1.817092
H 3.078169 -1.574622 2.735080
H 1.407348 -1.342813 2.061970
H 2.461779 -2.635289 1.397232
N 2.942474 -0.642334 0.854447
N 2.954116 0.723603 -0.861134
H 4.838153 1.420675 -0.165250
H 4.566864 -1.644131 -0.072938
C 0.001153 1.737424 0.825362
O -0.055670 2.788180 1.355751
Cl 0.347565 -2.092807 -0.948365
