45

Ir 0.004715 0.023935 -0.046885
P -2.280370 -0.341929 -0.009483
C -3.145444 0.540695 1.380265
C -2.796815 -2.112063 0.224182
C -2.583992 -3.005044 -1.001028
C -3.258651 0.174968 -1.507648
C -3.204788 1.664682 -1.849875
C -2.588304 0.182278 2.760153
H -3.007310 1.623832 1.177662
H -4.235120 0.329848 1.305431
H -2.183801 -2.480089 1.072232
H -3.860584 -2.111974 0.549221
H -2.847802 -0.425664 -2.345393
H -4.306129 -0.166114 -1.348794
H -1.534534 -2.944596 -1.349981
H -2.793189 -4.063881 -0.745998
H -3.253478 -2.729577 -1.840946
H -3.636416 2.293526 -1.044477
H -2.163154 2.002848 -2.013647
H -3.783847 1.870653 -2.773225
H -2.754901 -0.885775 3.007765
H -1.494218 0.364534 2.793347
H -3.072071 0.787494 3.553996
As 2.437260 0.264593 -0.098734
C 3.279827 -0.447000 -1.720184
C 3.444508 -0.678323 1.295658
C 3.192472 2.073172 -0.003153
H 2.982350 -1.508438 -1.817978
H 4.383114 -0.364767 -1.663888
H 2.899652 0.112266 -2.595893
H 3.239014 -1.762936 1.213568
H 3.102551 -0.324128 2.286426
H 4.530287 -0.491736 1.180297
H 2.745414 2.685495 -0.809468
H 4.294418 2.050428 -0.109685
H 2.919902 2.521503 0.971554
C -0.243009 1.857163 -0.082101
N -0.361600 3.065744 -0.150178
C -0.491822 4.274029 0.590145
H -1.381435 4.846918 0.251326
H 0.392545 4.928567 0.431565
H -0.593019 4.090379 1.683473
N 0.405943 -1.989225 0.086993
C 1.013152 -3.011412 0.303042
O 1.601430 -4.038588 0.512213
