38

Ir 0.036442 0.074973 0.014139
P -2.237778 -0.173930 0.052777
C -5.351741 -0.609140 0.126625
C -4.857120 0.704759 0.035033
C -3.494640 1.027936 -0.004233
C -3.112931 -1.673073 0.163158
C -4.510197 -1.736643 0.188724
H -6.441479 -0.761698 0.152451
H -5.586682 1.531623 -0.006316
H -3.180665 2.081748 -0.070934
H -2.501215 -2.587287 0.216457
H -4.981206 -2.731861 0.261797
C 2.088776 0.124647 0.029340
C 4.299377 -0.452035 -0.484167
C 4.295316 0.478528 0.740410
H 4.574057 -1.499762 -0.221642
H 4.724222 1.483457 0.516158
C 2.398676 1.317478 2.196919
H 2.669417 2.395959 2.138211
H 1.296410 1.222340 2.242512
H 2.843180 0.892180 3.121644
C 2.469751 -1.136390 -2.089896
H 2.614328 -2.230536 -1.950756
H 1.393065 -0.938625 -2.250285
H 3.047612 -0.806263 -2.978977
N 2.899123 -0.401418 -0.918840
N 2.864165 0.593823 1.036277
H 4.849867 0.062560 1.606826
H 4.982755 -0.113772 -1.290193
C -0.087154 1.924405 -0.171556
N -0.151439 3.131884 -0.226065
C -0.241972 4.309715 -1.014598
H 0.628916 4.974047 -0.828770
H -1.152689 4.888613 -0.750688
H -0.279003 4.082032 -2.103199
N 0.235486 -1.968091 0.182147
C 0.869929 -2.996153 0.138385
O 1.466498 -4.038291 0.084476
