26

Ir -0.237127 0.120818 -0.000113
As 2.135724 -0.020609 0.000075
C 2.880085 -0.999281 -1.522297
C 2.879328 -0.997713 1.523788
C 3.159579 1.647823 -0.000708
H 2.367385 -1.979439 -1.547624
H 3.974831 -1.128014 -1.413851
H 2.648466 -0.445223 -2.451419
H 2.366278 -1.977667 1.550051
H 2.647622 -0.442576 2.452246
H 3.974063 -1.126978 1.415852
H 2.888172 2.233502 -0.899536
H 4.247063 1.439542 0.000374
H 2.886746 2.235332 0.896491
N -2.356010 0.017218 0.000308
C -4.539203 0.573905 0.000135
C -3.252842 1.073395 0.000199
N -4.401716 -0.801297 0.000055
C -3.077799 -1.107768 0.000018
H -5.160411 -1.483244 0.000003
H -5.514026 1.070229 0.000151
H -2.912477 2.113386 0.000344
H -2.642531 -2.115318 -0.000084
C -0.205971 1.933714 -0.000254
O -0.164457 3.112131 -0.000140
Cl -0.142977 -2.304080 -0.000206
