34

Ir -0.000018 -0.058635 0.021464
As 2.394347 -0.303276 -0.002659
C 3.569454 1.236722 -0.298305
C 2.941721 -1.606826 -1.354655
C 3.132221 -1.100625 1.629912
H 3.337170 1.671765 -1.289102
H 4.636078 0.941800 -0.256878
H 3.355533 1.995108 0.479201
H 2.840874 -1.151884 -2.358165
H 2.209508 -2.432148 -1.258344
H 3.978302 -1.961459 -1.194385
H 2.957601 -0.413657 2.479449
H 4.215175 -1.308690 1.522100
H 2.578344 -2.041612 1.810772
As -2.394392 -0.302936 -0.002534
C -3.130474 -1.106703 1.627632
C -2.942641 -1.601697 -1.358769
C -3.570008 1.237883 -0.291856
H -2.575269 -2.047667 1.804514
H -4.213265 -1.315606 1.519840
H -2.955980 -0.422626 2.479522
H -2.211391 -2.428123 -1.264743
H -2.841069 -1.143766 -2.360836
H -3.979605 -1.955854 -1.199868
H -3.355700 1.993546 0.488189
H -4.636543 0.942599 -0.250726
H -3.338527 1.676486 -1.281273
C 0.000461 1.764713 0.200552
N 0.000871 2.970402 0.396051
C 0.000037 4.210263 -0.309530
H 0.887071 4.821010 -0.033375
H -0.895273 4.813749 -0.044100
H 0.007156 4.074128 -1.414839
F -0.000893 -2.086935 -0.188954
