30

Ir 0.048403 -0.423443 -0.037132
N 2.099253 0.138196 -0.017854
C 2.488930 1.353960 -0.480633
C 3.836519 1.736584 -0.451968
N 4.812044 0.947601 0.025201
C 4.414803 -0.250505 0.483256
C 3.078207 -0.667638 0.468646
H 1.692686 2.013217 -0.855111
H 4.126778 2.729598 -0.836725
H 5.190292 -0.924227 0.887523
H 2.773481 -1.656263 0.840658
P -2.202601 -0.818374 -0.012840
C -3.129364 -0.006746 -1.381613
C -3.036123 -0.172532 1.496578
C -2.751760 -2.572835 -0.097682
H -2.996240 1.090511 -1.306507
H -4.209209 -0.251540 -1.319767
H -2.722776 -0.349161 -2.352454
H -2.888641 0.924403 1.544791
H -2.577266 -0.633412 2.392092
H -4.121632 -0.398191 1.471144
H -2.403827 -3.017559 -1.050031
H -3.856367 -2.641574 -0.039023
H -2.294804 -3.140663 0.735410
C 0.443408 -2.220727 -0.071552
N 0.710941 -3.412359 0.034463
H 0.862352 -4.095596 -0.711514
N -0.452796 1.562911 0.017235
C -1.126435 2.558827 0.090237
S -2.047379 3.876649 0.181648
