51

Ir 1.424988 -0.120259 0.020576
P -0.837249 0.024818 0.002889
C -1.566463 -2.480746 1.017830
C -1.791345 -1.552692 -0.022049
C -1.470084 0.958940 -1.458560
C -0.739860 0.882352 -2.662375
C -1.203145 1.543777 -3.809594
C -2.391640 2.290788 -3.760278
C -3.116274 2.377264 -2.559830
C -2.658893 1.714919 -1.410063
C -1.549576 0.938794 1.445342
C -0.855339 2.077307 1.911329
C -1.379556 2.821714 2.978122
C -2.586318 2.439691 3.588932
C -3.275054 1.307068 3.127257
C -2.761531 0.556234 2.056721
C -2.715875 -1.861584 -1.038668
C -3.407731 -3.083982 -1.012915
C -3.186484 -4.000036 0.026551
C -2.264976 -3.695058 1.042909
H -0.834539 -2.249125 1.807457
H 0.202629 0.310243 -2.673616
H -0.627323 1.482457 -4.745911
H -2.751373 2.815002 -4.659246
H -4.043162 2.969800 -2.515723
H -3.224861 1.791343 -0.468902
H 0.092090 2.359276 1.420670
H -0.836037 3.708930 3.338692
H -2.990295 3.025224 4.429463
H -4.220153 1.001715 3.602607
H -3.306033 -0.331395 1.700604
H -2.895945 -1.145951 -1.854646
H -4.125346 -3.319284 -1.813955
H -3.729720 -4.957405 0.043752
H -2.081657 -4.412514 1.857274
N 3.649355 0.091967 0.065549
C 4.029393 0.911348 -1.111422
C 3.966763 0.832347 1.311832
C 4.375980 -1.195230 0.042312
H 3.368459 1.761603 1.318599
H 5.055375 1.068775 1.357707
H 3.684438 0.213816 2.184191
H 4.123345 -1.749283 -0.880424
H 4.075074 -1.808333 0.911642
H 5.476556 -1.022607 0.077202
H 3.444125 1.848539 -1.082849
H 3.782150 0.357618 -2.036439
H 5.121591 1.134403 -1.092494
C 1.417656 -1.931942 -0.045062
O 1.447579 -3.108496 -0.095776
F 1.525697 1.905709 0.056006
