54

Ir -1.132757 0.002429 0.034004
N -3.249659 -0.041584 0.077235
C -3.954296 1.002803 0.584333
C -5.354185 0.965526 0.639008
N -6.078426 -0.076191 0.200751
C -5.370546 -1.100434 -0.303231
C -3.972412 -1.100135 -0.369687
H -3.363931 1.866340 0.921662
H -5.903042 1.825458 1.060609
H -5.933205 -1.973154 -0.678180
H -3.408623 -1.951677 -0.775177
P 1.150449 0.057237 0.037639
C 1.227746 -0.847116 2.708296
C 1.940889 -0.177869 1.692683
C 1.941172 1.601778 -0.582459
C 1.778426 2.776868 0.182862
C 2.286237 3.996469 -0.282277
C 2.973742 4.052968 -1.506220
C 3.150660 2.885005 -2.262844
C 2.633103 1.660910 -1.807399
C 1.893251 -1.282565 -1.006806
C 1.277585 -1.553844 -2.248910
C 1.781846 -2.561515 -3.084383
C 2.893942 -3.320734 -2.681331
C 3.501865 -3.063154 -1.442375
C 3.008262 -2.045370 -0.608259
C 3.253843 0.274660 1.947701
C 3.845909 0.050014 3.200074
C 3.134183 -0.624621 4.206006
C 1.826042 -1.070908 3.958060
H 0.195299 -1.174646 2.510616
H 1.234166 2.738231 1.138411
H 2.127734 4.910901 0.308213
H 3.367002 5.013290 -1.873281
H 3.691064 2.923122 -3.221230
H 2.769531 0.751752 -2.411518
H 0.384137 -0.977007 -2.539338
H 1.297578 -2.760868 -4.052873
H 3.284356 -4.117769 -3.332844
H 4.369573 -3.658443 -1.118454
H 3.489601 -1.853501 0.362264
H 3.811197 0.813426 1.165832
H 4.868580 0.409579 3.392370
H 3.598902 -0.795257 5.189446
H 1.260653 -1.590441 4.746954
C -0.981784 -1.848619 0.142379
N -0.842239 -3.047937 0.235403
C -0.418183 -4.263708 -0.367740
H -0.840095 -5.139028 0.166965
H 0.690403 -4.341039 -0.332448
H -0.723946 -4.321617 -1.435717
N -1.296822 2.020179 -0.187747
C -1.180904 3.186225 -0.484538
O -1.091212 4.352466 -0.749044
