32

Ir -0.067083 0.028232 0.026008
N -2.214370 -0.038569 0.033192
C -5.023222 -0.253468 0.060593
C -4.212304 -1.330323 0.448158
C -2.821546 -1.191143 0.421590
C -2.999266 1.004616 -0.341343
C -4.395367 0.934746 -0.341986
H -6.120604 -0.337146 0.071233
H -4.648261 -2.286492 0.772982
H -2.116316 -1.989348 0.709712
H -2.476231 1.921072 -0.650135
H -4.976780 1.813352 -0.657236
C 1.924656 -0.126156 0.041144
C 4.066262 -1.034766 -0.304288
C 4.209237 0.400361 0.230292
H 4.422435 -1.801870 0.422563
H 4.614020 1.101799 -0.536788
C 2.531213 1.993367 1.236859
H 2.642778 2.872226 0.562844
H 1.488439 1.957921 1.602820
H 3.214842 2.123547 2.102562
C 2.070257 -2.357740 -1.098045
H 2.559734 -3.251318 -0.653391
H 0.992064 -2.407877 -0.861040
H 2.239380 -2.376550 -2.197372
N 2.621739 -1.159363 -0.501519
N 2.829177 0.749495 0.565548
H 4.866115 0.469280 1.123037
H 4.614124 -1.199115 -1.256096
C 0.018533 1.711274 -0.630856
O 0.067831 2.814145 -1.052210
F -0.173278 -1.851337 0.760683
