27

Ir -0.171237 0.058909 -0.000057
N 1.886187 0.000249 0.000040
C 4.063257 0.598357 -0.000087
C 2.768799 1.073777 -0.000152
N 3.954112 -0.777066 0.000382
C 2.637008 -1.113152 0.000437
H 4.724459 -1.445447 0.000582
H 5.026512 1.116381 0.000015
H 2.415400 2.108369 -0.000434
H 2.243124 -2.135320 0.000537
N -2.351842 -0.076752 0.000177
C -2.792464 -0.818764 -1.215471
C -2.791784 -0.819474 1.215577
C -3.023893 1.249077 0.000712
H -2.340434 -1.827342 1.213302
H -3.902822 -0.902432 1.228555
H -2.448145 -0.276529 2.114933
H -2.725590 1.817935 -0.898231
H -2.725225 1.817391 0.899882
H -4.129427 1.117105 0.000928
H -2.340970 -1.826564 -1.214083
H -2.449377 -0.275169 -2.114644
H -3.903491 -0.901753 -1.227792
C -0.159533 1.921130 -0.000036
O -0.125732 3.095345 -0.000302
C -0.157509 -1.998137 -0.000490
N -0.133630 -3.181035 -0.000555
