26

Ir 0.072309 -0.442358 -0.023334
N -1.971436 -0.585082 0.007402
C -4.283406 -0.027806 -0.026522
O -4.051529 -1.467155 0.062501
C -2.727992 -1.640826 0.055118
C -2.872199 0.597297 -0.009476
H -2.671651 1.221054 0.882817
H -2.650798 1.219513 -0.896907
H -4.914965 0.265498 0.834712
H -4.843485 0.162800 -0.963937
H -2.363356 -2.676952 0.090964
N 2.095823 -0.138096 -0.039963
C 4.436663 -0.377393 0.275705
O 4.071046 0.924459 -0.269719
C 2.738734 0.943232 -0.368236
C 3.104123 -1.154919 0.335958
H 2.870690 -1.553524 1.342036
H 3.051058 -1.998823 -0.381862
H 4.894606 -0.206794 1.271180
H 5.193227 -0.827436 -0.395824
H 2.265018 1.872373 -0.712928
C 0.254256 -2.262608 -0.053746
O 0.353911 -3.436037 -0.070279
N -0.132611 1.580619 0.010263
C -0.363504 2.760261 0.050389
S -0.690504 4.336764 0.096711
