29

Ir -0.234209 0.117892 -0.011094
N -2.346703 0.180531 -0.017606
C -4.624571 -0.399838 0.235713
O -4.430501 0.728743 -0.678533
C -3.108691 0.898922 -0.776992
C -3.227423 -0.645733 0.837713
H -2.886526 -1.699226 0.790051
H -3.127226 -0.297781 1.886792
H -4.996363 -1.251871 -0.370448
H -5.399155 -0.110717 0.971015
H -2.750915 1.650367 -1.495684
P 1.984831 -0.012155 -0.030724
C 5.122308 -0.148120 -0.059093
C 4.393678 -1.333512 0.154921
C 2.996889 -1.407635 0.191351
C 3.113039 1.289507 -0.271048
C 4.500227 1.096880 -0.262407
H 6.221638 -0.197743 -0.069542
H 4.958228 -2.269678 0.304536
H 2.480243 -2.365673 0.356560
H 2.696786 2.293975 -0.445021
H 5.143274 1.978107 -0.427991
C -0.155997 1.967719 0.000601
N -0.140618 3.175859 -0.065204
C -0.047152 4.427927 0.602151
H 0.906641 4.934872 0.342635
H -0.091808 4.314371 1.707576
H -0.870409 5.101620 0.284834
Br -0.426895 -2.422212 -0.012277
