25

Ir -0.142416 0.087979 0.004972
N -2.207399 0.027068 0.028776
C -4.381295 0.521168 -0.290070
C -3.088671 0.960358 -0.492774
N -4.265244 -0.691610 0.361153
C -2.945349 -0.962208 0.545792
H -5.033573 -1.292779 0.658311
H -5.348515 0.960791 -0.549847
H -2.728425 1.874180 -0.973966
H -2.543799 -1.866675 1.016032
N 1.903185 0.014614 0.011993
C 4.725239 -0.121926 0.052637
C 4.059264 0.877578 -0.673364
C 2.663298 0.914106 -0.675066
C 2.552310 -0.953366 0.722252
C 3.945869 -1.050328 0.758285
H 5.824063 -0.173508 0.069801
H 4.612494 1.634893 -1.247386
H 2.106049 1.675735 -1.237254
H 1.900311 -1.658078 1.257127
H 4.407265 -1.854429 1.349730
C -0.143006 1.899882 0.350054
O -0.144550 3.063698 0.526795
S -0.276965 -2.251477 -0.541940
H 1.018288 -2.522559 -0.868638
