26

Ir -0.000025 -0.304410 -0.000061
N 2.065609 -0.248946 -0.013669
C 4.879317 -0.116490 -0.004813
C 4.124410 0.644539 -0.907765
C 2.729057 0.556507 -0.887089
C 2.798463 -0.987091 0.862917
C 4.194423 -0.946738 0.895061
H 5.978463 -0.065230 -0.001993
H 4.604351 1.313137 -1.636706
H 2.097271 1.145761 -1.565148
H 2.224020 -1.620208 1.553056
H 4.730567 -1.566027 1.628339
N -2.065649 -0.248822 0.013548
C -4.879377 -0.116410 0.005229
C -4.124290 0.644944 0.907769
C -2.728951 0.556918 0.886841
C -2.798687 -0.987258 -0.862640
C -4.194653 -0.946944 -0.894506
H -5.978525 -0.065159 0.002636
H -4.604123 1.313769 1.636572
H -2.097006 1.146411 1.564552
H -2.224421 -1.620608 -1.552712
H -4.730942 -1.566493 -1.627458
C -0.000047 -2.129821 -0.000018
O 0.000050 -3.305651 -0.000009
Br 0.000119 2.226311 -0.000041
