31

Ir -0.013877 -0.122450 -0.017159
N -2.071613 -0.143275 -0.029471
C -4.896204 -0.193540 -0.034413
C -4.155674 -1.072689 -0.836219
C -2.758191 -1.022182 -0.814321
C -2.794427 0.708626 0.751298
C -4.190295 0.712862 0.772597
H -5.996352 -0.212081 -0.037151
H -4.649414 -1.807016 -1.489086
H -2.135659 -1.706198 -1.407119
H -2.205488 1.396516 1.372879
H -4.712506 1.425986 1.426814
N 2.037248 -0.180572 -0.010262
C 4.859935 -0.308432 -0.027831
C 4.108640 -1.036703 0.905271
C 2.712954 -0.950123 0.891952
C 2.770328 0.528806 -0.915340
C 4.165770 0.489285 -0.951393
H 5.959082 -0.358129 -0.035014
H 4.593130 -1.676906 1.656847
H 2.080563 -1.514636 1.591526
H 2.190574 1.137445 -1.622643
H 4.696631 1.083518 -1.709283
C 0.023117 1.739539 -0.147637
N 0.076557 2.942567 -0.312858
C 0.230527 4.204528 0.329560
H -0.657930 4.845429 0.145305
H 1.108004 4.745727 -0.083972
H 0.370031 4.106472 1.429512
S -0.086437 -2.520534 0.216705
H 1.056585 -2.839814 -0.457666
