42

Ir -0.126997 -0.272123 -0.010388
P 1.941484 0.669877 0.056307
C 2.970395 0.085820 1.491744
C 1.981488 2.521375 0.229894
C 1.678848 3.304406 -1.051503
C 3.065591 0.379026 -1.401326
C 3.322755 -1.085575 -1.756328
C 2.317260 0.350446 2.850394
H 3.110204 -1.005216 1.339189
H 3.972550 0.561913 1.414408
H 1.230466 2.757273 1.010845
H 2.980298 2.790907 0.637817
H 2.581818 0.898010 -2.254232
H 4.016278 0.918120 -1.192455
H 0.756444 2.936692 -1.541412
H 1.514407 4.374709 -0.816083
H 2.511040 3.244026 -1.781504
H 3.792534 -1.643743 -0.920459
H 2.375428 -1.597881 -2.016695
H 4.004097 -1.162413 -2.628184
H 2.199803 1.435400 3.048014
H 1.307891 -0.107717 2.889503
H 2.928072 -0.074461 3.672943
N -2.098913 -1.072833 -0.013405
C -4.455714 -1.325901 -0.178346
O -3.774947 -2.579684 0.144661
C -2.468490 -2.297251 0.180979
C -3.328984 -0.269136 -0.202959
H -3.402077 0.480523 0.609071
H -3.263225 0.293877 -1.153365
H -5.223914 -1.149639 0.599503
H -4.959849 -1.463554 -1.156450
H -1.782974 -3.133874 0.379726
C 0.636174 -1.958628 0.087824
N 1.094559 -3.072445 0.257616
C 1.717349 -4.197460 -0.353438
H 1.413250 -5.137723 0.151299
H 2.823831 -4.124541 -0.270164
H 1.461921 -4.282432 -1.433339
N -1.022466 1.552484 -0.071687
C -1.560006 2.626144 -0.040942
S -2.285279 4.067783 -0.008353
