30

Ir 0.025563 0.091129 -0.027207
C -1.973367 0.013248 -0.017462
C -4.161913 0.300913 0.541027
C -4.114847 -0.562753 -0.521953
H -5.011027 0.695173 1.107017
H -4.915729 -1.076798 -1.061753
C -2.270997 -1.580083 -1.915648
H -1.509078 -1.026477 -2.496674
H -1.781556 -2.470028 -1.474426
H -3.110402 -1.875442 -2.572151
C -2.444934 1.549575 1.897232
H -1.377906 1.356356 2.117978
H -2.560105 2.605540 1.577502
H -3.057008 1.367485 2.801450
N -2.848720 0.638844 0.836871
N -2.777415 -0.720048 -0.853019
N 2.173892 0.015258 0.000342
C 4.990928 -0.080587 0.053288
C 4.315319 0.744804 -0.858004
C 2.917584 0.765639 -0.853158
C 2.829107 -0.787296 0.878297
C 4.225358 -0.858149 0.933293
H 6.090702 -0.116371 0.075714
H 4.860062 1.374952 -1.575864
H 2.354850 1.402759 -1.550249
H 2.184338 -1.405552 1.520917
H 4.698541 -1.525735 1.668029
C -0.013774 1.858190 -0.455339
O -0.062741 3.004451 -0.724357
Cl 0.002520 -2.239869 0.574913
