50

Ir 1.027718 0.037724 0.011601
P -1.333148 0.012512 -0.007509
C -1.358374 -1.601725 2.278869
C -2.006090 -1.347111 1.050167
C -2.064428 -0.296749 -1.674445
C -1.308256 -1.001067 -2.634280
C -1.860660 -1.287864 -3.891826
C -3.164337 -0.869657 -4.204053
C -3.918259 -0.161046 -3.254121
C -3.373254 0.126082 -1.993107
C -2.228088 1.509622 0.580190
C -2.108204 2.699592 -0.171986
C -2.768080 3.862575 0.247919
C -3.538878 3.855951 1.422405
C -3.651737 2.678201 2.176816
C -2.999718 1.506612 1.759101
C -3.127852 -2.116255 0.684926
C -3.597001 -3.126546 1.540372
C -2.956594 -3.370638 2.765655
C -1.837522 -2.604659 3.134724
H -0.465265 -1.012992 2.546315
H -0.280062 -1.310253 -2.390943
H -1.261997 -1.834958 -4.636086
H -3.592481 -1.089695 -5.194225
H -4.938082 0.175570 -3.496442
H -3.964256 0.689667 -1.254980
H -1.492680 2.715412 -1.082412
H -2.669233 4.785368 -0.343846
H -4.051586 4.773135 1.751051
H -4.254555 2.665555 3.097868
H -3.098418 0.586487 2.353736
H -3.633002 -1.933482 -0.275315
H -4.469567 -3.728705 1.243665
H -3.327567 -4.163287 3.433665
H -1.329541 -2.792850 4.093232
P 3.312653 0.047088 0.001922
C 6.446253 0.030795 -0.024427
C 5.778898 1.262448 0.116656
C 4.386966 1.403914 0.142758
C 4.372416 -1.320285 -0.158250
C 5.767537 -1.194411 -0.156153
H 7.546869 0.026371 -0.033833
H 6.390161 2.175976 0.212497
H 3.908834 2.389918 0.250614
H 3.903621 -2.310557 -0.271628
H 6.369236 -2.112565 -0.266324
C 1.004333 -1.802151 -0.021411
N 1.003034 -3.019879 -0.143699
H 0.862770 -3.717674 0.591126
Cl 1.097898 2.432363 0.092337
