53

Ir -1.098676 -0.424794 0.058545
P 1.086942 0.178640 0.028715
C 1.577759 -1.307978 -2.294429
C 2.122642 -0.920215 -1.050186
C 1.959912 0.124932 1.660548
C 1.481617 -0.743137 2.663361
C 2.148487 -0.832004 3.895012
C 3.290167 -0.051151 4.138798
C 3.765487 0.821966 3.146317
C 3.104772 0.911524 1.911137
C 1.457456 1.879670 -0.580142
C 0.970787 2.968626 0.175129
C 1.150177 4.280599 -0.282017
C 1.830605 4.519791 -1.487913
C 2.330864 3.441796 -2.233718
C 2.142555 2.123334 -1.786445
C 3.393161 -1.398586 -0.674985
C 4.108905 -2.251042 -1.533281
C 3.567821 -2.623898 -2.773897
C 2.301133 -2.147524 -3.154252
H 0.568564 -0.957541 -2.566398
H 0.572781 -1.334132 2.469727
H 1.766262 -1.509669 4.673989
H 3.807072 -0.116210 5.108822
H 4.654776 1.442878 3.335849
H 3.474598 1.603709 1.138831
H 0.430686 2.788048 1.116071
H 0.735020 5.116926 0.299659
H 1.965504 5.550868 -1.849335
H 2.868238 3.623671 -3.177338
H 2.529735 1.283980 -2.382959
H 3.824312 -1.113692 0.296335
H 5.098091 -2.625382 -1.227122
H 4.131917 -3.290549 -3.444488
H 1.868828 -2.439173 -4.123997
N -3.165989 -0.969569 0.102795
C -5.065619 -2.165177 0.302016
C -3.687477 -2.231215 0.335453
N -5.365379 -0.841136 0.044559
C -4.203961 -0.144561 -0.071032
H -6.298829 -0.438651 -0.043413
H -5.836977 -2.928696 0.438577
H -3.034286 -3.091425 0.510904
H -4.138659 0.931349 -0.265354
C -0.530256 -2.193481 0.085317
N -0.141675 -3.340166 0.146833
C 0.524393 -4.403445 -0.526048
H 0.133063 -4.542902 -1.557869
H 0.403221 -5.357779 0.025681
H 1.612030 -4.186254 -0.604938
N -1.750750 1.498731 -0.042888
C -2.197371 2.610162 -0.117784
S -2.821222 4.098201 -0.209424
