30

Ir -0.107151 0.077604 -0.017708
N -2.205140 -0.020716 -0.003045
C -2.866321 -1.131686 -0.427836
C -4.265612 -1.187868 -0.413159
N -5.040155 -0.179131 0.017757
C -4.377676 0.909391 0.442722
C -2.981697 1.006516 0.436955
H -2.241403 -1.975433 -0.754923
H -4.772253 -2.101401 -0.770261
H -4.977856 1.759784 0.810974
H -2.461997 1.912412 0.778547
As 2.272828 -0.035980 0.008054
C 3.285224 1.633113 -0.168322
C 3.063212 -1.161551 -1.383556
C 3.018280 -0.815440 1.640452
H 3.056608 2.086831 -1.151517
H 4.372854 1.441582 -0.087890
H 2.961962 2.332156 0.626085
H 2.820984 -0.730615 -2.373322
H 2.592466 -2.159347 -1.300070
H 4.161132 -1.232210 -1.255737
H 2.747970 -0.172779 2.499402
H 4.119253 -0.909474 1.563878
H 2.547574 -1.808240 1.770529
C -0.101235 1.956213 -0.164115
N -0.074224 3.178144 -0.143496
H -0.057997 3.860001 -0.903947
C 0.007612 -1.960288 0.149387
C 0.121783 -3.193538 0.253293
H 0.193252 -4.268697 0.352549
