54

Ir 1.210009 0.003840 -0.035820
P -1.059218 0.054175 -0.026378
C -1.165431 -1.479117 2.315849
C -1.800188 -1.243157 1.076270
C -1.882968 -0.247002 -1.657731
C -1.193261 -0.973560 -2.649771
C -1.811390 -1.249896 -3.879151
C -3.116708 -0.797745 -4.132061
C -3.805368 -0.065802 -3.150623
C -3.193314 0.209612 -1.917882
C -1.846953 1.621612 0.542044
C -1.692467 2.766731 -0.268712
C -2.191039 4.005127 0.155540
C -2.862645 4.110041 1.385052
C -3.032430 2.971728 2.187626
C -2.522958 1.729998 1.772645
C -2.930984 -2.006172 0.725334
C -3.420696 -2.988712 1.602846
C -2.793257 -3.210604 2.839007
C -1.665688 -2.450870 3.195179
H -0.259366 -0.903583 2.567144
H -0.162889 -1.305472 -2.448829
H -1.264190 -1.815453 -4.649145
H -3.596893 -1.008953 -5.100137
H -4.825698 0.298542 -3.346754
H -3.733552 0.791617 -1.155196
H -1.163328 2.690525 -1.230511
H -2.034793 4.895488 -0.471162
H -3.249657 5.084580 1.720219
H -3.561060 3.047615 3.150449
H -2.652821 0.844811 2.412880
H -3.428022 -1.842235 -0.242368
H -4.300614 -3.584834 1.315201
H -3.180416 -3.980266 3.524593
H -1.165610 -2.622672 4.160999
N 3.323695 -0.031036 -0.070365
C 5.592034 -0.639700 -0.413324
O 5.447092 0.664125 0.226156
C 4.133524 0.884985 0.353081
C 4.139682 -1.139192 -0.601481
H 3.911203 -2.067036 -0.039480
H 3.866959 -1.320077 -1.660116
H 6.204613 -1.277084 0.254929
H 6.139804 -0.488644 -1.365022
H 3.808537 1.837083 0.795953
C 1.075520 -1.844694 -0.097571
N 0.956743 -3.051101 -0.183375
C 0.543946 -4.223051 0.516230
H 0.956062 -5.134739 0.037508
H -0.565076 -4.304358 0.507207
H 0.868973 -4.205555 1.580008
N 1.398883 2.032343 0.108308
C 1.290650 3.234066 0.161323
O 1.210966 4.431270 0.210741
