47

Ir 1.308507 -0.157700 -0.004263
P -0.959486 0.038615 0.004119
C -1.710458 -2.445171 1.053901
C -1.946317 -1.520187 0.013768
C -1.603373 0.967512 -1.457172
C -0.895173 0.862206 -2.671952
C -1.367036 1.515711 -3.820348
C -2.541541 2.283874 -3.761663
C -3.243706 2.399486 -2.550353
C -2.777841 1.744904 -1.399481
C -1.634704 0.979715 1.447697
C -0.892008 2.084279 1.920466
C -1.385522 2.844947 2.990632
C -2.608647 2.512682 3.597972
C -3.344805 1.412771 3.130255
C -2.862284 0.646107 2.056584
C -2.905425 -1.817979 -0.973601
C -3.620121 -3.026358 -0.919147
C -3.387254 -3.939475 0.120366
C -2.431391 -3.645429 1.107837
H -0.952262 -2.221972 1.820905
H 0.037292 0.274032 -2.692002
H -0.808204 1.431327 -4.765165
H -2.907786 2.801702 -4.661780
H -4.159477 3.008579 -2.498695
H -3.326279 1.843999 -0.450101
H 0.068764 2.324825 1.433001
H -0.804200 3.705266 3.357562
H -2.987854 3.110641 4.441362
H -4.302210 1.145317 3.603914
H -3.442583 -0.217193 1.696664
H -3.094340 -1.104750 -1.789731
H -4.364554 -3.253115 -1.697936
H -3.948198 -4.885951 0.160012
H -2.238833 -4.360596 1.922138
N 3.421963 -0.037406 0.022385
C 5.632798 -0.441384 0.063617
C 4.384523 -1.030240 0.021435
N 5.399307 0.921725 0.090953
C 4.057985 1.136388 0.065420
H 6.109750 1.652988 0.125285
H 6.640362 -0.867252 0.076441
H 4.112637 -2.090161 -0.009028
H 3.533569 2.099974 0.079785
C 1.283752 -1.969495 -0.053223
O 1.320448 -3.146638 -0.090731
F 1.438945 1.868853 0.016473
