28

Ir 0.168492 0.046367 -0.004137
P -2.057019 0.002592 -0.005659
C -5.193579 -0.039013 0.004440
C -4.534059 1.144252 0.385012
C -3.142038 1.292035 0.420675
C -3.108422 -1.311903 -0.436053
C -4.503099 -1.202232 -0.383842
H -6.293966 -0.054542 0.008522
H -5.150484 2.011400 0.677363
H -2.692116 2.245728 0.737852
H -2.621976 -2.246586 -0.756724
H -5.096624 -2.086551 -0.672148
N 2.298574 0.026980 -0.005276
C 5.110039 -0.007724 0.016996
C 4.374284 -0.835891 0.875448
C 2.975712 -0.795448 0.838177
C 3.010843 0.833592 -0.832867
C 4.408288 0.841132 -0.852921
H 6.210426 -0.020255 0.026111
H 4.871474 -1.517699 1.580398
H 2.350224 -1.441470 1.471732
H 2.420596 1.484613 -1.492808
H 4.933335 1.510754 -1.549165
C 0.149584 1.906334 0.080116
N 0.164393 3.120736 0.234928
H 0.034118 3.839781 -0.482566
S 0.189413 -2.361705 -0.044773
H 1.359701 -2.531866 -0.727432
