36

Ir -0.217808 0.124966 -0.054182
P -2.535450 -0.125467 0.068527
C -3.163201 -0.479123 1.765559
C -3.194032 -1.541580 -0.911682
C -3.589740 1.287180 -0.480476
H -2.619721 -1.368034 2.141415
H -4.256768 -0.664827 1.768105
H -2.926728 0.379136 2.423949
H -2.647555 -2.449475 -0.589189
H -2.982170 -1.367787 -1.984558
H -4.285070 -1.673385 -0.761370
H -3.344183 2.179601 0.127767
H -4.669656 1.055957 -0.379985
H -3.358145 1.521982 -1.537791
C 1.833582 0.041918 -0.039050
C 3.997562 -0.749647 -0.461164
C 4.069762 0.373246 0.588294
H 4.211132 -1.752416 -0.022188
H 4.549649 1.298360 0.190348
C 2.241938 1.560246 1.886366
H 2.596553 2.590271 1.653852
H 1.134078 1.553487 1.921366
H 2.643139 1.265678 2.879601
C 2.084191 -1.587609 -1.893691
H 2.126641 -2.642728 -1.543044
H 1.023135 -1.325882 -2.075317
H 2.665321 -1.491629 -2.835219
N 2.598964 -0.680818 -0.892429
N 2.653852 0.618779 0.872424
H 4.619101 0.078271 1.506445
H 4.692200 -0.598454 -1.313343
C -0.305145 1.872316 -0.731429
O -0.387983 2.966539 -1.146916
C -0.159080 -1.781796 0.697003
C -0.137204 -2.941468 1.139552
H -0.105656 -3.948648 1.532922
