30

Ir 0.323063 -0.002555 0.000800
N 2.488909 -0.243477 0.004591
C 3.243159 0.989875 -0.318098
C 2.879483 -0.718430 1.359465
C 2.816698 -1.297606 -0.993953
H 2.633758 0.062797 2.102381
H 3.972582 -0.935558 1.390005
H 2.291937 -1.628756 1.577861
H 2.548978 -0.933971 -2.003300
H 2.213454 -2.193426 -0.756207
H 3.905100 -1.533973 -0.958653
H 2.999134 1.779637 0.414989
H 2.952849 1.345994 -1.323187
H 4.338304 0.786649 -0.298885
N -1.698321 -0.043454 -0.002073
C -4.519737 -0.244776 -0.013068
C -3.716813 -1.295078 -0.483280
C -2.326399 -1.165662 -0.470764
C -2.481127 0.976457 0.459245
C -3.875404 0.908363 0.462882
H -5.617204 -0.320130 -0.020810
H -4.158952 -2.223534 -0.873601
H -1.648281 -1.960429 -0.814931
H -1.943987 1.865225 0.817378
H -4.446896 1.766853 0.845043
C 0.364126 1.811319 -0.237001
N 0.364740 3.047711 -0.213324
H 0.234679 3.625680 -1.050534
O 0.350216 -2.016273 0.349538
H -0.344275 -2.288388 0.977644
