28

Ir 0.023892 -0.226862 -0.060588
N 2.061031 -0.134589 -0.048423
C 2.708806 0.931140 -0.599896
C 4.105347 1.015362 -0.574868
N 4.892616 0.076887 -0.024358
C 4.244425 -0.968203 0.516054
C 2.851235 -1.091043 0.516349
H 2.073374 1.710086 -1.041539
H 4.599181 1.891237 -1.030182
H 4.855096 -1.760938 0.982207
H 2.343610 -1.957007 0.962053
N -2.040921 -0.195263 -0.063184
C -4.852817 -0.049474 -0.037037
C -4.089705 0.885151 -0.751273
C -2.695840 0.785017 -0.743628
C -2.781168 -1.103342 0.628785
C -4.177188 -1.060158 0.663000
H -5.951575 0.008111 -0.025705
H -4.563001 1.699391 -1.318487
H -2.054332 1.501549 -1.273689
H -2.215197 -1.880670 1.160055
H -4.721526 -1.819738 1.242263
C 0.041862 -2.062463 -0.156488
N 0.042304 -3.285996 -0.055543
H 0.046209 -3.967682 -0.819136
N -0.023185 1.808161 0.114019
C -0.144345 2.951607 0.492722
O -0.254766 4.094758 0.830941
