33

Ir -0.158255 0.270281 -0.114464
N -2.275258 0.252059 -0.032319
C -4.471204 -0.594907 -0.256528
O -4.342814 0.350231 0.856163
C -3.050917 0.686588 0.902881
C -3.109173 -0.521029 -0.976498
H -3.144307 0.016278 -1.947371
H -2.644414 -1.514757 -1.115001
H -5.337856 -0.280486 -0.868420
H -4.668511 -1.592385 0.185901
H -2.730497 1.319785 1.742952
C 1.826123 0.032487 -0.076526
C 3.890146 -1.034610 -0.308798
C 4.088450 0.259814 0.492752
H 3.943707 -1.939472 0.341029
H 4.635834 1.040701 -0.087328
C 2.402217 1.792042 1.596564
H 2.776660 2.753868 1.177384
H 1.302417 1.848719 1.708566
H 2.862090 1.641289 2.596185
C 1.928364 -1.908078 -1.626527
H 1.833423 -2.860879 -1.060180
H 0.914462 -1.573595 -1.922334
H 2.541422 -2.077294 -2.536188
N 2.524981 -0.874258 -0.811211
N 2.706851 0.677005 0.732871
H 4.631368 0.102955 1.447375
H 4.617164 -1.156004 -1.137462
C -0.017912 1.984818 -0.785165
O 0.099007 3.078370 -1.191579
N -0.281247 -1.710765 0.704399
O 0.716091 -2.214734 1.256479
O -1.346182 -2.355293 0.623880
