33

Ir 0.157762 -0.224734 0.046028
N 2.273920 0.024398 -0.010553
C 2.832198 1.146183 -0.538330
C 4.222175 1.308230 -0.586765
N 5.087547 0.390696 -0.125320
C 4.527426 -0.712376 0.397305
C 3.143293 -0.908954 0.460636
H 2.121921 1.905996 -0.899240
H 4.644304 2.229890 -1.023856
H 5.204283 -1.490841 0.790616
H 2.713557 -1.824816 0.890090
C -1.848402 -0.276726 0.041904
C -4.061341 -0.720193 -0.592937
C -4.056205 0.337782 0.522311
H -4.643301 -0.410880 -1.485271
H -4.732027 0.088760 1.365930
C -2.220141 1.158858 2.054133
H -2.795568 0.900727 2.967979
H -1.143921 0.971545 2.229096
H -2.365901 2.238499 1.829476
C -2.184980 -1.680897 -1.995257
H -2.676579 -1.378922 -2.943951
H -1.089628 -1.557963 -2.096602
H -2.414681 -2.753480 -1.803627
N -2.636022 -0.841234 -0.909090
N -2.653511 0.332771 0.947360
H -4.332387 1.351013 0.148830
H -4.463936 -1.701745 -0.248580
C 0.230866 -2.016736 0.417696
O 0.233903 -3.168559 0.658003
N -0.019395 1.785810 -0.363322
C -0.747168 2.754134 -0.424963
O -1.429889 3.737785 -0.479622
