34

Ir 0.139820 -0.224374 -0.040236
N 2.281088 -0.000834 0.005146
C 5.082821 0.322982 0.101843
C 4.226203 1.254989 0.704523
C 2.842547 1.063760 0.635961
C 3.114040 -0.902027 -0.578812
C 4.505699 -0.775185 -0.553118
H 6.175459 0.448301 0.141071
H 4.618683 2.136883 1.231535
H 2.123908 1.776463 1.068352
H 2.632802 -1.754164 -1.079306
H 5.123388 -1.539447 -1.046668
C -1.859095 -0.258163 -0.040660
C -4.065952 0.370117 -0.519915
C -4.079960 -0.731837 0.551397
H -4.351549 1.366418 -0.108871
H -4.472035 -1.700696 0.160859
C -2.220256 -1.731526 1.944508
H -2.414576 -2.800827 1.701114
H -1.132051 -1.586555 2.085128
H -2.748745 -1.482970 2.888972
C -2.221149 1.240504 -2.010467
H -2.361825 2.314454 -1.756391
H -1.145316 1.053646 -2.187922
H -2.795712 1.011444 -2.932914
N -2.660113 0.383946 -0.930180
N -2.659469 -0.855575 0.882945
H -4.677768 -0.462786 1.446489
H -4.732682 0.153476 -1.379797
C 0.193795 -2.022289 -0.375580
O 0.188725 -3.180564 -0.588462
N 0.004074 1.791088 0.349230
C -0.650362 2.808660 0.414494
O -1.260869 3.839675 0.472397
