24

Ir 0.325978 -0.075046 -0.000034
N 2.463012 -0.031293 0.000200
C 4.626481 -0.656134 0.000274
C 3.326090 -1.115711 0.000620
N 4.530688 0.722874 -0.000312
C 3.219244 1.071026 -0.000423
H 5.310072 1.381580 -0.001179
H 5.585371 -1.182513 0.000500
H 2.957494 -2.145920 0.001405
H 2.813610 2.091000 -0.001122
P -1.904251 -0.010934 -0.000055
C -5.033830 0.073968 0.000126
C -4.394942 -1.179073 0.000193
C -3.005125 -1.353873 0.000061
C -2.928262 1.390637 -0.000194
C -4.323883 1.289609 -0.000124
H -6.133816 0.105169 0.000280
H -5.025095 -2.084507 0.000337
H -2.576631 -2.368264 0.000010
H -2.420940 2.367133 -0.000382
H -4.902664 2.228901 -0.000297
C 0.294039 -1.900255 -0.000254
O 0.271502 -3.075209 -0.000318
Cl 0.355842 2.328791 0.000325
