43

Ir 0.139103 0.055773 -0.013541
P -2.204169 -0.065225 -0.026134
C -2.940329 0.261148 1.653050
C -2.995479 -1.681975 -0.498914
C -2.911551 -2.047349 -1.982967
C -3.117613 1.148531 -1.108157
C -2.740329 2.615899 -0.899697
C -2.420673 -0.694210 2.730506
H -2.662879 1.306090 1.906408
H -4.048545 0.222645 1.566482
H -2.469511 -2.450389 0.104364
H -4.051733 -1.644758 -0.151819
H -2.894129 0.844179 -2.151697
H -4.206670 0.983145 -0.951789
H -1.858846 -2.082881 -2.323998
H -3.343378 -3.055117 -2.150183
H -3.474352 -1.337946 -2.623300
H -2.940412 2.956381 0.136773
H -1.661767 2.774414 -1.099810
H -3.318290 3.271738 -1.582739
H -2.707204 -1.745645 2.524959
H -1.313057 -0.653155 2.778778
H -2.824731 -0.425960 3.728099
C 2.194445 0.035706 -0.025004
C 4.356220 -0.557848 0.363859
C 4.369215 0.451410 -0.562950
H 5.175976 -1.122640 0.818075
H 5.201527 0.944664 -1.073956
C 2.599690 1.820328 -1.720707
H 1.492036 1.787647 -1.737191
H 2.941400 2.824702 -1.396851
H 2.989588 1.610026 -2.736334
C 2.559316 -1.836720 1.585434
H 1.606852 -1.502887 2.037980
H 2.360067 -2.770595 1.023283
H 3.317640 -2.008427 2.372665
N 3.026388 -0.792318 0.682368
N 3.043510 0.798763 -0.787045
C 0.067667 1.732008 0.840761
N 0.020090 2.712596 1.566975
H -0.043071 3.709663 1.361790
C 0.268178 -1.871104 -0.710776
N 0.388947 -3.005604 -1.024007
