31

Ir 0.369886 -0.213454 -0.031610
P 2.699895 -0.046633 0.042560
C 3.275540 0.836187 1.549043
C 3.391603 0.949594 -1.339516
C 3.678864 -1.603088 0.021456
H 2.739132 1.803880 1.591496
H 4.371637 1.003758 1.527844
H 3.000815 0.244708 2.443526
H 2.855468 1.918298 -1.349908
H 3.193528 0.430929 -2.297253
H 4.481532 1.113448 -1.216967
H 3.355256 -2.246945 0.861975
H 4.764270 -1.393731 0.104180
H 3.477604 -2.145151 -0.922802
P -1.918825 -0.193753 -0.014741
C -5.055359 -0.171088 0.064401
C -4.373371 1.056794 -0.022826
C -2.979306 1.183738 -0.065717
C -2.998517 -1.551251 0.092872
C -4.391234 -1.410047 0.120319
H -6.155524 -0.161208 0.092583
H -4.972841 1.982046 -0.059337
H -2.523268 2.183971 -0.130910
H -2.540382 -2.551357 0.149093
H -5.002745 -2.325386 0.192903
C 0.398734 -2.059297 -0.076181
N 0.412859 -3.281703 -0.004590
H 0.418625 -3.956093 -0.773455
N 0.397055 1.839415 -0.008416
C -0.002238 2.980787 -0.010410
O -0.374757 4.120331 -0.013232
