29

Ir 0.128722 0.121903 -0.029705
C -1.865192 -0.015104 -0.025799
C -4.067981 0.247881 0.492999
C -3.984828 -0.694833 -0.498280
H -4.934128 0.658815 1.020004
H -4.764872 -1.273860 -1.001604
C -2.098768 -1.758892 -1.796511
H -1.355884 -1.225232 -2.419510
H -1.577874 -2.591616 -1.285122
H -2.924299 -2.136828 -2.427863
C -2.402710 1.649628 1.759909
H -1.329941 1.511854 1.994487
H -2.555233 2.673923 1.362103
H -3.010843 1.513612 2.674947
N -2.768526 0.648008 0.770587
N -2.640364 -0.836366 -0.806309
N 2.254142 0.082264 0.002153
C 4.484831 -0.581238 0.432905
O 4.397115 0.421781 -0.628274
C 3.087802 0.642402 -0.812298
C 3.057985 -0.649998 1.007632
H 2.948878 -0.133980 1.984475
H 2.647284 -1.672675 1.118578
H 5.256264 -0.248597 1.153185
H 4.813170 -1.532171 -0.037294
H 2.806860 1.303595 -1.644815
C 0.067905 1.851153 -0.583233
O 0.027863 2.976499 -0.931924
Cl 0.181070 -2.166056 0.744021
