40

Ir -0.036043 -0.048274 -0.016460
C -2.089076 -0.189305 0.047056
C -4.297787 0.189921 0.496007
C -4.215559 -0.965869 -0.236890
H -5.163027 0.712240 0.915219
H -4.996745 -1.650591 -0.581141
C -2.327396 -2.304529 -1.246840
H -1.753855 -1.931840 -2.117779
H -1.637588 -2.871931 -0.591470
H -3.160236 -2.945849 -1.590808
C -2.626924 1.848870 1.381729
H -1.532499 1.807962 1.544947
H -2.876805 2.757501 0.794630
H -3.151838 1.887632 2.356577
N -2.996210 0.644036 0.660014
N -2.870980 -1.176530 -0.500698
C 2.014865 -0.107334 0.000548
C 4.264490 0.362376 0.501391
C 4.180247 -0.977604 -0.247665
H 4.725412 1.167499 -0.120003
H 4.384137 -1.846425 0.422138
C 2.261074 -2.095876 -1.461105
H 2.216505 -3.033048 -0.863741
H 1.228322 -1.833068 -1.763193
H 2.890640 -2.257370 -2.361737
C 2.454665 1.806429 1.525036
H 2.768767 2.759885 1.038252
H 1.349886 1.784651 1.607293
H 2.901294 1.770948 2.541942
N 2.852904 0.656763 0.752281
N 2.782876 -0.994819 -0.683551
H 4.876423 -1.043206 -1.109620
H 4.839801 0.298297 1.448470
C -0.080889 1.558408 -0.901395
N -0.106064 2.608163 -1.523156
C -0.115580 4.019682 -1.327516
H -1.135771 4.385937 -1.069833
H 0.195373 4.549791 -2.251794
H 0.570503 4.335185 -0.507823
Cl 0.062713 -2.124789 1.259441
