29

Ir 0.211014 -0.168582 0.043963
N 2.395780 -0.080425 0.003447
C 3.022495 -1.340183 0.483174
C 2.819714 0.169527 -1.403056
C 2.890782 1.027745 0.869788
H 2.491475 -0.676756 -2.033951
H 3.928608 0.267990 -1.456678
H 2.330568 1.099355 -1.748431
H 2.502850 0.889494 1.895876
H 2.543272 1.994038 0.468016
H 4.003805 1.022165 0.889255
H 2.722503 -2.181628 -0.166405
H 2.690059 -1.549313 1.516452
H 4.131488 -1.245127 0.462994
N -1.828940 -0.096644 0.034366
C -4.100796 -0.389671 -0.567716
O -3.925878 0.538087 0.544975
C -2.611876 0.637792 0.764539
C -2.679416 -0.923082 -0.850926
H -2.359986 -0.792284 -1.902638
H -2.547087 -1.992851 -0.587082
H -4.534587 0.181871 -1.413341
H -4.822062 -1.167862 -0.251371
H -2.256447 1.359798 1.511853
C 0.164736 -2.004155 0.155581
O 0.076069 -3.174823 0.210854
N 0.137492 1.961115 -0.121278
O 0.817504 2.551176 -0.986166
O -0.597279 2.612529 0.643615
