28

Ir 0.086155 -0.171809 0.017044
N -1.936533 -0.230761 0.025425
C -2.560463 -1.428774 -0.195974
C -3.954140 -1.521754 -0.197648
N -4.773808 -0.475686 0.011927
C -4.149444 0.693293 0.234503
C -2.759675 0.836262 0.246991
H -1.879945 -2.280811 -0.352749
H -4.423406 -2.503976 -0.381789
H -4.781028 1.580648 0.417009
H -2.276428 1.804122 0.435625
N 2.116689 -0.377415 0.009541
C 4.467028 -0.103276 0.126236
O 4.068963 -1.497282 -0.049643
C 2.733830 -1.518114 -0.075330
C 3.138166 0.685515 0.094279
H 3.039978 1.352690 -0.786005
H 2.961548 1.298600 0.999561
H 5.165708 0.154706 -0.693439
H 5.004662 -0.028698 1.093064
H 2.198577 -2.475874 -0.164165
C 0.164183 1.651784 0.117771
N 0.245272 2.861064 0.263468
C 0.324724 4.087210 -0.462236
H 1.300656 4.587600 -0.279816
H -0.462440 4.794093 -0.123472
H 0.210417 3.940538 -1.559539
F 0.085493 -2.194372 -0.113739
