32

Ir -0.178302 -0.209936 -0.061683
C 1.815828 -0.228122 -0.035245
C 3.978394 -0.712065 0.510533
C 4.003494 0.301996 -0.409374
H 4.792111 -1.230234 1.026736
H 4.842641 0.847332 -0.851429
C 2.284676 1.605270 -1.690011
H 2.931712 1.548088 -2.587294
H 1.232221 1.417934 -1.971270
H 2.358978 2.615847 -1.240030
C 2.176026 -2.049284 1.648568
H 1.203359 -1.729380 2.066418
H 2.023340 -3.012778 1.122452
H 2.915702 -2.177843 2.461312
N 2.643799 -1.020269 0.730365
N 2.683874 0.580679 -0.735632
N -2.295968 -0.066991 -0.010347
C -4.514177 0.764907 0.179412
O -4.470885 -0.685224 0.005573
C -3.174191 -1.015050 -0.066034
C -3.034939 1.208043 0.122456
H -2.683124 1.738872 1.027441
H -2.791918 1.857969 -0.741303
H -5.003649 0.970486 1.152967
H -5.142815 1.183006 -0.631621
H -2.934477 -2.083222 -0.173785
C -0.232541 -1.982209 -0.520073
N -0.289260 -3.197630 -0.724608
H -0.274241 -3.628641 -1.654493
N -0.147144 1.791830 0.420172
C 0.324629 2.891992 0.590619
O 0.762025 4.000405 0.744272
