29

Ir 0.034759 -0.091675 0.030368
N 2.164491 -0.008755 -0.003242
C 2.830790 0.872563 -0.794201
C 4.231300 0.906944 -0.815851
N 4.999572 0.093350 -0.074026
C 4.331981 -0.770392 0.708293
C 2.934559 -0.833869 0.754112
H 2.206966 1.565508 -1.379363
H 4.744099 1.631839 -1.471768
H 4.927714 -1.453957 1.338067
H 2.412249 -1.553715 1.399904
C -1.971225 -0.023676 0.012071
C -4.151643 -0.291060 -0.576368
C -4.114899 0.531025 0.519474
H -4.995150 -0.664523 -1.164401
H -4.920917 1.022658 1.072328
C -2.282451 1.505191 1.959527
H -1.508543 0.943598 2.516207
H -1.811517 2.419477 1.548873
H -3.122578 1.762140 2.630875
C -2.422398 -1.484515 -1.966077
H -1.338343 -1.329594 -2.125785
H -2.604153 -2.549477 -1.715210
H -2.978310 -1.220904 -2.886413
N -2.835579 -0.617517 -0.872678
N -2.780537 0.676228 0.868166
C -0.000387 -1.856764 0.475553
O -0.048906 -2.996907 0.764972
Cl -0.026242 2.242667 -0.547537
