28

Ir -0.132309 -0.163157 -0.030321
N 1.896386 -0.215353 -0.043462
C 2.603637 -1.268240 0.472472
C 4.001282 -1.287314 0.449351
N 4.754319 -0.301401 -0.068285
C 4.054900 0.725507 -0.580533
C 2.659573 0.786624 -0.579164
H 2.016799 -2.098480 0.887089
H 4.527637 -2.156927 0.879809
H 4.626461 1.558594 -1.026527
H 2.121786 1.639663 -1.012242
N -2.208399 -0.214811 -0.050549
C -4.379492 0.369721 -0.240301
C -3.082449 0.833831 -0.302740
N -4.276928 -0.976379 0.053144
C -2.963619 -1.303062 0.162331
H -5.050641 -1.632069 0.163245
H -5.340841 0.872460 -0.379637
H -2.716092 1.841779 -0.514418
H -2.570009 -2.306054 0.365451
C -0.138505 1.743252 0.042099
N -0.146626 2.944769 0.089696
C -0.119207 4.261941 0.597186
H -0.888226 4.892912 0.103280
H 0.868529 4.734305 0.408685
H -0.306370 4.278914 1.693419
C -0.182622 -2.204004 0.018805
N -0.279067 -3.381337 0.095100
