32

Ir -0.267167 -0.333741 -0.000188
P 1.891000 -1.260093 0.000562
C 2.914576 -0.749596 1.442634
C 2.915312 -0.750619 -1.441313
C 2.004073 -3.097506 0.001312
H 3.013923 0.353787 1.434858
H 3.921473 -1.212285 1.395759
H 2.405914 -1.052853 2.377798
H 3.014196 0.352817 -1.434521
H 2.407267 -1.054930 -2.376470
H 3.922343 -1.212896 -1.393401
H 1.487787 -3.493216 0.897513
H 3.059990 -3.435202 0.001534
H 1.487890 -3.493971 -0.894610
P -2.323663 0.779992 -0.000338
C -2.214830 2.613170 -0.057997
C -3.377491 0.443751 1.473687
C -3.429861 0.354527 -1.411409
H -1.632416 2.966572 0.814234
H -3.224244 3.071176 -0.054368
H -1.663813 2.912786 -0.969903
H -2.827238 0.748117 2.384915
H -3.570840 -0.645150 1.534672
H -4.340763 0.991034 1.418259
H -2.914754 0.603857 -2.359172
H -4.392131 0.903176 -1.353379
H -3.622013 -0.736293 -1.399474
C -1.112629 -1.963517 -0.001659
O -1.646325 -3.011103 -0.003195
N 0.728288 1.442550 0.000563
C 1.559144 2.311297 -0.000288
S 2.690751 3.459686 -0.001334
