62

Ir 0.952556 0.179315 -0.149019
P 3.293078 0.033027 -0.022068
C 4.245029 -0.332113 -1.578023
C 3.819690 -1.304345 1.152563
C 3.238129 -1.148784 2.560030
C 4.167345 1.538656 0.637733
C 4.294578 2.706492 -0.344331
C 3.952930 -1.687764 -2.224092
H 3.990565 0.492237 -2.276442
H 5.324206 -0.222815 -1.327044
H 3.464968 -2.257123 0.709055
H 4.931957 -1.324279 1.156426
H 3.599702 1.846737 1.540046
H 5.169655 1.203772 0.983938
H 2.132128 -1.200030 2.518011
H 3.592236 -1.969874 3.215821
H 3.531364 -0.190566 3.036017
H 4.943455 2.453291 -1.206272
H 3.310582 3.026064 -0.738883
H 4.745872 3.584165 0.161289
H 4.241550 -2.531385 -1.565087
H 2.876790 -1.803246 -2.458658
H 4.529134 -1.793546 -3.165637
P -1.405865 0.067233 -0.004144
C -2.119994 -2.537208 -0.806341
C -2.304285 -1.158910 -1.057460
C -2.246832 1.663601 -0.393203
C -1.780732 2.390677 -1.510102
C -2.398515 3.594923 -1.876655
C -3.474848 4.091893 -1.122996
C -3.932510 3.378727 -0.003832
C -3.325758 2.165877 0.360153
C -1.955510 -0.370105 1.701738
C -1.069376 -0.143536 2.774740
C -1.462767 -0.441586 4.087948
C -2.738345 -0.972679 4.338268
C -3.621309 -1.209330 3.271307
C -3.233588 -0.912369 1.955762
C -3.155880 -0.753987 -2.105260
C -3.815105 -1.713520 -2.890409
C -3.633312 -3.080939 -2.635075
C -2.785763 -3.487723 -1.591517
H -1.449186 -2.875096 -0.001614
H -0.919073 2.008050 -2.081231
H -2.028689 4.154087 -2.749685
H -3.952781 5.042853 -1.404365
H -4.769008 3.769392 0.595845
H -3.689356 1.614400 1.239897
H -0.061497 0.246370 2.554687
H -0.762719 -0.267800 4.919497
H -3.043548 -1.213153 5.368426
H -4.618263 -1.635121 3.463170
H -3.921916 -1.114435 1.120576
H -3.313421 0.315141 -2.309430
H -4.478167 -1.384797 -3.705466
H -4.150621 -3.832028 -3.251744
H -2.629168 -4.558261 -1.389646
C 0.952940 2.000947 0.174264
O 0.954236 3.148005 0.415398
N 0.919777 -1.917043 -0.452704
O 0.936451 -2.670848 0.540564
O 0.810884 -2.369188 -1.601734
