30

Ir -0.035373 0.263251 -0.100118
N -2.160524 0.205428 -0.080708
C -2.853162 -0.907212 -0.439105
C -4.254076 -0.923892 -0.417084
N -4.996299 0.131815 -0.046560
C -4.302142 1.225630 0.309385
C -2.903557 1.279193 0.296498
H -2.254232 -1.787679 -0.715332
H -4.789426 -1.841669 -0.716843
H -4.877419 2.113509 0.625172
H -2.354464 2.188320 0.580572
C 1.965935 0.223536 -0.093095
C 4.125066 -0.296347 -0.586773
C 4.143489 0.577167 0.469254
H 4.941959 -0.792673 -1.119151
H 4.979381 0.999134 1.035091
C 2.389268 1.795290 1.805357
H 2.433178 2.846908 1.456513
H 1.340450 1.550396 2.057662
H 3.032131 1.669115 2.697321
C 2.320265 -1.389597 -1.966642
H 2.056992 -2.375668 -1.535388
H 1.403308 -0.957695 -2.410284
H 3.105286 -1.497774 -2.738770
N 2.793779 -0.493033 -0.921042
N 2.821077 0.882745 0.756577
C -0.019895 2.028892 -0.572029
N -0.003278 3.248947 -0.726533
H -0.009060 3.739500 -1.625351
Br 0.024719 -2.160894 0.697461
