27

Ir -0.100910 0.079694 -0.012009
N -2.144188 0.053567 -0.028603
C -4.378984 -0.506835 0.496923
O -4.287217 0.401606 -0.644022
C -2.976604 0.566956 -0.878795
C -2.946215 -0.555735 1.059274
H -2.560788 -1.573907 1.264228
H -2.804806 0.051726 1.977358
H -4.727012 -1.489132 0.112626
H -5.136042 -0.102981 1.195502
H -2.689451 1.145392 -1.767767
N 1.953732 0.007644 0.005745
C 4.776170 -0.106648 0.023355
C 4.022668 -0.963680 -0.790452
C 2.626876 -0.881297 -0.779340
C 2.689049 0.838543 0.797084
C 4.084573 0.810388 0.830106
H 5.875619 -0.149701 0.028950
H 4.504982 -1.704280 -1.444749
H 1.993554 -1.547777 -1.381267
H 2.111113 1.539254 1.414303
H 4.617379 1.508610 1.491745
C -0.109482 1.923654 -0.129997
N -0.154916 3.133466 -0.346263
H -0.277050 3.858688 0.368011
S -0.117584 -2.338455 0.136689
H -1.269020 -2.584691 -0.554160
