27

Ir 0.130195 -0.160393 0.027263
N -1.887181 -0.244470 0.026758
C -2.499583 -1.447652 -0.203092
C -3.891855 -1.554754 -0.209675
N -4.723951 -0.518702 0.002618
C -4.111494 0.655101 0.233250
C -2.723434 0.812514 0.251119
H -1.810268 -2.291828 -0.362391
H -4.349988 -2.541024 -0.400599
H -4.752292 1.535366 0.418319
H -2.251184 1.784423 0.446575
N 2.178396 -0.338355 0.027839
C 4.400906 -0.007860 0.124512
C 3.170949 0.614908 0.185837
N 4.130062 -1.349935 -0.071850
C 2.784365 -1.523371 -0.126055
H 4.819440 -2.096424 -0.160270
H 5.419726 0.381949 0.205068
H 2.924687 1.669949 0.337581
H 2.231866 -2.461553 -0.259156
C 0.187771 1.662459 0.119820
N 0.259727 2.875230 0.249392
C 0.301167 4.083677 -0.510693
H 1.198334 4.682776 -0.244447
H -0.582657 4.718548 -0.284553
H 0.321095 3.896315 -1.607510
F 0.154897 -2.184973 -0.113481
