52

Ir -1.214337 -0.105617 0.022385
P 1.056747 -0.105536 0.008131
C 1.742257 2.497137 0.830408
C 1.841939 1.557629 -0.219220
C 1.805801 -1.109062 -1.354396
C 1.058161 -1.268641 -2.539399
C 1.600789 -1.970908 -3.625904
C 2.886889 -2.527766 -3.534259
C 3.629774 -2.380812 -2.351340
C 3.093588 -1.673711 -1.263836
C 1.906262 -0.721844 1.540377
C 1.273402 -1.706226 2.328120
C 1.911792 -2.206879 3.473231
C 3.179481 -1.732466 3.847284
C 3.814148 -0.753359 3.066451
C 3.182742 -0.249278 1.918226
C 2.468854 1.935104 -1.421416
C 2.990516 3.231627 -1.571317
C 2.897928 4.158143 -0.521755
C 2.273992 3.785746 0.682329
H 1.247034 2.210983 1.771970
H 0.041157 -0.846188 -2.584369
H 1.009167 -2.093845 -4.546215
H 3.308970 -3.086149 -4.384303
H 4.633938 -2.825192 -2.270599
H 3.678229 -1.571633 -0.337204
H 0.285690 -2.086740 2.022842
H 1.408951 -2.975906 4.079947
H 3.673979 -2.124773 4.749588
H 4.808186 -0.375229 3.351845
H 3.687188 0.522858 1.317635
H 2.550651 1.212146 -2.246956
H 3.478163 3.515118 -2.516850
H 3.314655 5.170497 -0.638693
H 2.200172 4.505454 1.512671
N -3.330895 -0.238019 0.056824
C -5.649203 0.244547 -0.094625
O -5.385105 -1.140958 0.278152
C -4.054703 -1.286066 0.291054
C -4.251443 0.901570 -0.130697
H -4.086305 1.635576 0.684417
H -4.025013 1.413093 -1.086242
H -6.335311 0.675932 0.660057
H -6.159320 0.235269 -1.079786
H -3.630740 -2.284435 0.484295
C -1.285428 1.734115 -0.073168
N -1.380984 2.927243 -0.256203
C -1.272220 4.260584 0.211563
H -2.129059 4.872911 -0.141289
H -0.342910 4.730197 -0.176757
H -1.240862 4.312786 1.323243
Cl -1.172458 -2.531715 0.026432
