52

Ir 1.247742 -0.225045 0.011160
P -1.005734 -0.098811 0.013722
C -0.983023 1.504306 -2.283766
C -1.635817 1.293557 -1.048917
C -1.789892 0.238584 1.663622
C -1.007718 0.807758 2.688602
C -1.583029 1.105713 3.933819
C -2.939941 0.832737 4.170201
C -3.723146 0.257343 3.155795
C -3.152591 -0.039846 1.908326
C -2.004025 -1.546136 -0.567889
C -2.009877 -2.713151 0.230284
C -2.730496 -3.844274 -0.178782
C -3.444488 -3.829275 -1.389133
C -3.435848 -2.676017 -2.188454
C -2.719925 -1.537587 -1.780712
C -2.685782 2.153326 -0.672108
C -3.079850 3.203397 -1.519130
C -2.437086 3.398737 -2.751857
C -1.388580 2.544143 -3.133611
H -0.133099 0.854693 -2.550925
H 0.059948 0.997024 2.496121
H -0.962038 1.547251 4.728646
H -3.387795 1.060987 5.149953
H -4.785714 0.032712 3.337554
H -3.769837 -0.500600 1.121478
H -1.438318 -2.734711 1.170442
H -2.727562 -4.747460 0.450631
H -4.007561 -4.719596 -1.709278
H -3.993591 -2.656365 -3.137571
H -2.724437 -0.635857 -2.410991
H -3.192904 2.013982 0.294066
H -3.895874 3.874722 -1.209275
H -2.748767 4.222057 -3.413305
H -0.873960 2.695527 -4.095298
N 3.379005 -0.289795 0.086944
C 5.515743 0.177585 0.623992
C 4.199354 0.533163 0.839349
N 5.473575 -0.872025 -0.275612
C 4.173368 -1.127294 -0.585062
H 6.276400 -1.375682 -0.652490
H 6.453767 0.570937 1.026728
H 3.781830 1.319777 1.475040
H 3.810351 -1.926417 -1.243484
C 1.258426 1.633829 0.170308
N 1.220408 2.842711 0.305649
C 1.088300 4.051828 -0.443569
H 1.583682 4.895415 0.079498
H 0.012899 4.310240 -0.557547
H 1.524112 3.961723 -1.463209
S 1.405413 -2.603279 -0.304050
H 0.246384 -2.898069 -0.953819
