49

Ir -1.081230 -0.173887 0.024995
N -3.205008 -0.273649 0.044537
C -3.959293 0.643042 0.701097
C -5.358345 0.546718 0.705666
N -6.027492 -0.426226 0.068528
C -5.269244 -1.322294 -0.583158
C -3.869697 -1.264359 -0.600987
H -3.418364 1.461614 1.196876
H -5.952011 1.298866 1.253568
H -5.787892 -2.132819 -1.124022
H -3.260908 -2.013540 -1.126545
P 1.212431 -0.096591 0.027877
C 1.208839 -0.676276 2.789455
C 1.968498 -0.166717 1.716745
C 2.050685 1.368154 -0.723188
C 2.006853 2.601364 -0.036548
C 2.616136 3.735791 -0.589022
C 3.261436 3.657027 -1.834622
C 3.299098 2.436019 -2.524175
C 2.697989 1.293027 -1.971472
C 1.976976 -1.519545 -0.879329
C 1.337164 -1.956514 -2.059122
C 1.888473 -2.998508 -2.818763
C 3.074175 -3.624565 -2.400385
C 3.706843 -3.202777 -1.220244
C 3.164692 -2.152013 -0.462733
C 3.294086 0.260983 1.950413
C 3.851843 0.162991 3.234403
C 3.093072 -0.356609 4.296297
C 1.771097 -0.772877 4.071807
H 0.163695 -0.972544 2.605911
H 1.491572 2.673331 0.932225
H 2.576241 4.692276 -0.045808
H 3.734606 4.551379 -2.268600
H 3.803063 2.366150 -3.500400
H 2.739333 0.338914 -2.517097
H 0.391489 -1.479019 -2.363155
H 1.381784 -3.330269 -3.738012
H 3.502263 -4.448660 -2.991811
H 4.631145 -3.696229 -0.882084
H 3.667167 -1.832797 0.462208
H 3.888562 0.684752 1.126442
H 4.885216 0.501297 3.406993
H 3.531202 -0.427087 5.303892
H 1.167158 -1.166280 4.904029
C -0.990095 -1.990818 0.281403
N -0.989882 -3.214890 0.312832
H -0.896573 -3.831118 1.123382
Br -1.329759 2.308453 -0.381237
