30

Ir -0.000015 0.074955 0.004052
P 2.288869 0.049264 0.038025
C 5.424390 0.069920 0.098513
C 4.742573 1.290912 0.249835
C 3.347525 1.413549 0.237996
C 3.368770 -1.301284 -0.122946
C 4.759908 -1.158540 -0.078320
H 6.524751 0.075123 0.120932
H 5.341331 2.207081 0.387935
H 2.879696 2.401771 0.369024
H 2.898403 -2.287882 -0.258271
H 5.372658 -2.069241 -0.188677
P -2.288901 0.049333 0.038000
C -5.424419 0.070023 0.098519
C -4.759939 -1.158554 -0.077550
C -3.368807 -1.301324 -0.122103
C -3.347550 1.413734 0.237132
C -4.742604 1.291104 0.249055
H -6.524781 0.075234 0.120956
H -5.372701 -2.069317 -0.187322
H -2.898438 -2.288001 -0.256847
H -2.879733 2.402045 0.367491
H -5.341352 2.207369 0.386560
C 0.000012 1.939340 0.003680
N 0.000047 3.142554 0.049074
C 0.000269 4.440242 -0.520728
H 0.897864 5.007836 -0.196582
H -0.889556 5.013293 -0.185039
H -0.006960 4.400442 -1.631966
Br -0.000018 -2.467967 -0.061789
