32

Ir -0.000032 -0.119532 -0.000025
P 2.321868 0.070423 0.000089
C 2.986953 1.000652 1.443585
C 2.987188 1.000312 -1.443520
C 3.309522 -1.486492 0.000300
H 2.482744 1.986418 1.466629
H 4.086235 1.129900 1.371486
H 2.732770 0.455975 2.373329
H 2.483431 1.986307 -1.466573
H 2.732675 0.455722 -2.373222
H 4.086535 1.129087 -1.371519
H 3.046480 -2.082135 0.896100
H 4.398449 -1.276771 0.000804
H 3.047289 -2.081829 -0.895947
P -2.321924 0.070411 0.000082
C -2.987176 1.000486 -1.443439
C -2.986997 1.000518 1.443649
C -3.309570 -1.486503 0.000147
H -2.483089 1.986314 -1.466542
H -4.086474 1.129600 -1.371351
H -2.732933 0.455807 -2.373168
H -2.483034 1.986415 1.466578
H -2.732530 0.455956 2.373381
H -4.086322 1.129507 1.371729
H -3.046982 -2.081991 -0.895894
H -4.398498 -1.276796 0.000228
H -3.046850 -2.082017 0.896132
C 0.000093 -1.994968 -0.000130
O 0.000179 -3.167616 -0.000307
C 0.000102 1.926712 -0.000227
C 0.000173 3.168681 -0.000347
H 0.000223 4.250528 -0.000461
