27

Ir 0.328232 -0.040976 -0.019523
N 2.461407 0.000095 0.029416
C 4.624173 -0.603667 0.199735
C 3.324924 -1.067241 0.215604
N 4.527685 0.761417 -0.000075
C 3.215250 1.096090 -0.098867
H 5.305999 1.418190 -0.061307
H 5.583588 -1.116608 0.313970
H 2.949758 -2.086293 0.349972
H 2.813271 2.106929 -0.242314
P -1.884961 0.018255 0.008304
C -5.025195 0.087428 0.079072
C -4.376796 -1.160081 0.130670
C -2.986563 -1.325138 0.105310
C -2.926764 1.408864 -0.041097
C -4.321477 1.304064 -0.001953
H -6.125123 0.113153 0.105113
H -5.001147 -2.067497 0.197739
H -2.548160 -2.333839 0.157428
H -2.429866 2.389159 -0.101883
H -4.905856 2.239493 -0.036839
C 0.321337 -1.928044 -0.129780
N 0.325313 -3.148466 -0.149378
H 0.277715 -3.802468 -0.933207
C 0.349014 2.006625 -0.017314
C 0.383414 3.247784 -0.025309
H 0.391645 4.329701 -0.026119
