26

Ir 0.000005 0.084783 0.000125
P -2.297948 0.013472 -0.000047
C -5.420141 -0.091891 -0.000461
C -4.793200 1.167406 -0.000359
C -3.404306 1.350374 -0.000173
C -3.309207 -1.394983 -0.000198
C -4.705597 -1.305052 -0.000382
H -6.520008 -0.130342 -0.000611
H -5.431400 2.066860 -0.000431
H -2.980215 2.366903 -0.000099
H -2.791093 -2.366450 -0.000141
H -5.280177 -2.246611 -0.000471
P 2.297961 0.013480 -0.000054
C 5.420152 -0.091886 -0.000457
C 4.705608 -1.305046 -0.000359
C 3.309216 -1.394976 -0.000175
C 3.404320 1.350381 -0.000200
C 4.793213 1.167413 -0.000378
H 6.520019 -0.130338 -0.000602
H 5.280187 -2.246605 -0.000432
H 2.791105 -2.366444 -0.000100
H 2.980226 2.366909 -0.000146
H 5.431414 2.066866 -0.000461
C -0.000027 1.920974 0.000302
O -0.000065 3.092747 0.000528
Cl -0.000016 -2.311271 0.000482
