47

Ir 0.099353 -0.193327 -0.102065
P -2.253042 -0.231203 -0.044815
C -2.992261 0.926141 1.212245
C -3.063726 -1.852860 0.371404
C -2.814659 -2.967431 -0.649624
C -3.116967 0.279488 -1.613693
C -2.636706 1.622949 -2.167908
C -2.473191 0.688727 2.632539
H -2.719792 1.946814 0.870370
H -4.100104 0.847078 1.157827
H -2.640825 -2.140736 1.356930
H -4.149090 -1.659044 0.526001
H -2.908737 -0.530768 -2.343432
H -4.214373 0.275745 -1.429299
H -1.723191 -3.107287 -0.780139
H -3.266183 -3.919426 -0.301574
H -3.265495 -2.733783 -1.636003
H -2.848593 2.461869 -1.474026
H -1.540216 1.605210 -2.330327
H -3.133280 1.854396 -3.132440
H -2.790298 -0.297481 3.028871
H -1.363694 0.708778 2.645206
H -2.849771 1.464086 3.331280
C 2.147714 -0.248346 -0.091822
C 4.321560 -0.789033 0.611566
C 4.407689 0.228469 -0.535952
H 4.619646 -0.346937 1.591871
H 4.820694 -0.218965 -1.471218
C 2.650074 1.511317 -1.794805
H 3.106403 1.187743 -2.758273
H 1.550043 1.517569 -1.902903
H 3.000575 2.541537 -1.569667
C 2.378350 -2.111775 1.550005
H 2.342330 -1.718734 2.591648
H 1.368130 -2.404631 1.204606
H 3.035887 -3.005876 1.534913
N 2.896985 -1.126435 0.622423
N 3.003294 0.595744 -0.734232
H 5.028324 1.115698 -0.289605
H 4.948582 -1.690472 0.448025
C 0.072768 1.609637 0.200227
N 0.042239 2.826043 0.333851
C -0.023453 3.796990 1.380992
H -0.905875 4.459684 1.245869
H 0.872576 4.454880 1.364839
H -0.092673 3.334313 2.391570
F 0.135962 -2.208901 -0.391672
