53

Ir 1.303013 -0.053392 0.010583
P -1.049150 0.006615 -0.006178
C -1.169985 -1.909142 2.027740
C -1.817952 -1.431253 0.868408
C -1.786494 -0.039541 -1.701409
C -1.028468 -0.595727 -2.752305
C -1.569235 -0.682534 -4.044234
C -2.866017 -0.208330 -4.299987
C -3.621665 0.357560 -3.259757
C -3.086319 0.444316 -1.965256
C -1.888697 1.458889 0.761988
C -1.756692 2.717708 0.135763
C -2.364366 3.849236 0.696774
C -3.095058 3.742239 1.892090
C -3.219242 2.495180 2.523247
C -2.621118 1.355431 1.961045
C -3.017367 -2.038242 0.446182
C -3.561635 -3.105932 1.177570
C -2.919905 -3.569915 2.337103
C -1.723640 -2.968657 2.761642
H -0.218049 -1.446663 2.336893
H -0.002901 -0.940690 -2.544054
H -0.968543 -1.116120 -4.858528
H -3.287061 -0.271617 -5.315356
H -4.635334 0.739248 -3.457306
H -3.677524 0.901108 -1.156636
H -1.173172 2.810385 -0.791484
H -2.258054 4.825515 0.199141
H -3.567808 4.633827 2.332317
H -3.790515 2.402856 3.459838
H -2.730724 0.380574 2.458892
H -3.525656 -1.684111 -0.463006
H -4.494066 -3.580602 0.834914
H -3.349243 -4.408262 2.907175
H -1.210906 -3.333454 3.664924
P 3.625053 0.091049 0.030023
C 4.318503 0.828131 1.566934
C 4.315561 1.149079 -1.308168
C 4.562892 -1.486761 -0.147442
H 3.842761 1.818407 1.704500
H 5.420935 0.930911 1.501982
H 4.050575 0.186318 2.428264
H 3.843194 2.146579 -1.220177
H 4.041567 0.715148 -2.289132
H 5.418626 1.231800 -1.227317
H 4.285232 -2.171686 0.677101
H 5.656914 -1.307447 -0.127876
H 4.284274 -1.971438 -1.103270
C 1.323379 -1.923489 -0.184430
O 1.387139 -3.087353 -0.302614
C 1.416890 1.968659 0.241372
C 1.566500 3.191889 0.392179
H 1.638617 4.261719 0.534286
