35

Ir -0.214751 0.116585 -0.070498
P -2.545411 -0.065525 0.048299
C -3.161920 -0.328581 1.765648
C -3.227829 -1.521002 -0.854880
C -3.565133 1.343265 -0.567639
H -2.607672 -1.197602 2.172073
H -4.254661 -0.517135 1.790817
H -2.918237 0.561074 2.378169
H -2.673669 -2.408359 -0.489951
H -3.027797 -1.402833 -1.937613
H -4.316745 -1.644285 -0.683931
H -3.265524 2.266046 -0.033651
H -4.648868 1.159654 -0.421960
H -3.357533 1.493319 -1.645208
C 1.832438 0.050478 -0.051006
C 3.999638 -0.774323 -0.383163
C 4.067524 0.458242 0.533916
H 4.206620 -1.721702 0.167993
H 4.537202 1.337345 0.032123
C 2.241092 1.767967 1.704666
H 2.567667 2.770035 1.345147
H 1.135625 1.750401 1.767439
H 2.671501 1.596295 2.714219
C 2.097680 -1.755765 -1.735667
H 2.074468 -2.759253 -1.257069
H 1.059146 -1.482459 -2.005607
H 2.728051 -1.795651 -2.648989
N 2.604232 -0.748600 -0.829467
N 2.650686 0.721880 0.796803
H 4.624077 0.272354 1.475848
H 4.700628 -0.721965 -1.241909
C -0.258919 1.808795 -0.758699
N -0.297204 2.992121 -1.093946
H -0.316683 3.332895 -2.059001
Cl -0.179531 -2.113800 0.897183
