37

Ir 0.273441 0.041045 -0.016946
P -2.014491 -0.049327 0.020534
C -2.754890 1.020849 1.350391
C -2.817603 -1.697235 0.338820
C -2.851853 -2.671934 -0.840858
C -2.880752 0.537110 -1.519027
C -2.510205 1.944361 -1.988884
C -2.282967 0.650891 2.758771
H -2.462726 2.063760 1.105644
H -3.861539 0.961959 1.258013
H -2.254099 -2.142425 1.183862
H -3.845609 -1.475195 0.700802
H -2.627605 -0.206772 -2.302373
H -3.973114 0.445442 -1.328146
H -1.832115 -2.890782 -1.210970
H -3.294128 -3.635707 -0.516513
H -3.468388 -2.293018 -1.680735
H -2.717276 2.716343 -1.220337
H -1.433892 2.006614 -2.243258
H -3.089972 2.215668 -2.894512
H -2.603340 -0.371067 3.046254
H -1.175800 0.681833 2.819420
H -2.694789 1.354190 3.510831
N 2.401068 0.010140 -0.038442
C 4.679089 -0.676770 -0.049371
O 4.525809 0.778055 -0.064979
C 3.213255 1.019272 -0.048390
C 3.231916 -1.217370 -0.057213
H 2.979398 -1.845590 0.818129
H 2.978404 -1.813304 -0.955248
H 5.251979 -0.941527 0.861665
H 5.271664 -0.960328 -0.941384
H 2.907679 2.075762 -0.044297
C 0.206678 1.910633 0.018039
O 0.166551 3.081276 0.088582
C 0.358047 -2.000058 0.064078
N 0.459579 -3.175789 0.136019
