30

Ir -0.174681 0.034540 0.004165
P -2.425632 -0.208967 -0.002608
C -2.959839 -1.544742 1.144266
C -3.063321 -0.791556 -1.629880
C -3.487878 1.235079 0.412184
H -2.311263 -2.412057 0.907480
H -4.030674 -1.801650 1.014200
H -2.768684 -1.231064 2.188444
H -2.477963 -1.698545 -1.877212
H -2.868948 -0.020515 -2.399936
H -4.146551 -1.027704 -1.591736
H -3.258704 1.563626 1.444527
H -4.564171 0.981449 0.333029
H -3.244423 2.069846 -0.273477
N 1.948129 -0.057094 -0.012460
C 4.751227 -0.296179 0.014358
C 3.933935 -1.364108 0.413559
C 2.543785 -1.212035 0.388339
C 2.737669 0.977712 -0.400108
C 4.133124 0.894169 -0.400548
H 5.847938 -0.386954 0.029218
H 4.363848 -2.318686 0.750982
H 1.838861 -2.014474 0.663744
H 2.211295 1.894760 -0.703582
H 4.723865 1.763026 -0.725559
C -0.228616 1.855598 0.206553
N -0.271845 3.089289 0.171971
H -0.132164 3.685465 0.994054
O -0.203095 -2.009462 -0.255556
H 0.382884 -2.244862 -1.000214
