31

Ir 0.142850 0.191709 -0.055766
C -1.862239 0.088352 -0.056294
C -4.056336 0.443807 0.444001
C -3.998521 -0.598631 -0.442124
H -4.910605 0.924321 0.930003
H -4.791731 -1.215088 -0.875259
C -2.162884 -1.860749 -1.601978
H -1.167595 -1.568124 -1.985142
H -2.050472 -2.799707 -1.023655
H -2.861832 -2.013174 -2.446289
C -2.363418 1.927025 1.567292
H -1.348085 1.711090 1.949476
H -2.345099 2.900977 1.036957
H -3.078806 1.979117 2.409711
N -2.748698 0.847962 0.670364
N -2.659534 -0.794009 -0.744768
N 2.264187 0.138576 0.038630
C 4.509444 -0.556940 0.370780
O 4.415816 0.709698 -0.354280
C 3.109497 0.945037 -0.519631
C 3.058301 -0.865732 0.787691
H 2.869754 -0.724824 1.872079
H 2.711154 -1.876809 0.502017
H 5.210135 -0.413792 1.215607
H 4.933610 -1.307127 -0.328469
H 2.838994 1.826669 -1.118719
C 0.101950 1.961485 -0.564249
O 0.048969 3.089568 -0.888429
N 0.085689 -1.873364 0.468825
O 0.830762 -2.670059 -0.144046
O -0.747443 -2.294355 1.288181
