30

Ir -0.285315 -0.383600 -0.053045
C 1.706099 -0.581073 -0.065836
C 3.835481 -1.193798 0.470610
C 3.913400 -0.251712 -0.520052
H 4.619840 -1.737081 1.005897
H 4.779661 0.195300 -1.016633
C 2.270477 1.090660 -1.858537
H 1.210559 0.945409 -2.136231
H 2.397933 2.121278 -1.468723
H 2.915694 0.939491 -2.745574
C 1.965721 -2.302836 1.736035
H 1.005688 -1.902920 2.112656
H 1.782900 -3.304203 1.295657
H 2.689127 -2.392373 2.568439
N 2.487035 -1.379679 0.739029
N 2.611941 0.104827 -0.840642
N -2.390345 0.006466 0.000640
C -4.364773 1.078746 0.164042
C -2.994408 1.236511 0.205338
N -4.581144 -0.266043 -0.069006
C -3.372662 -0.884514 -0.162122
H -5.487751 -0.725056 -0.158448
H -5.183680 1.794916 0.278944
H -2.390623 2.134810 0.366602
H -3.239335 -1.955740 -0.345760
C -0.512197 -2.168984 -0.370726
O -0.655135 -3.323017 -0.565827
N 0.003530 1.609019 0.297723
C 0.473453 2.710527 0.397850
S 1.104353 4.192764 0.498778
