50

Ir 0.106214 -0.352827 -0.033930
P -2.242504 -0.605916 -0.015129
C -3.104838 -0.242598 -1.621372
C -3.074764 0.528934 1.195524
C -2.516331 0.423126 2.616531
C -2.916031 -2.276606 0.454300
C -2.734659 -3.383880 -0.587397
C -2.785119 1.118814 -2.242718
H -2.803828 -1.058930 -2.310736
H -4.195758 -0.362641 -1.435947
H -2.940413 1.560009 0.807753
H -4.163813 0.306356 1.160764
H -2.404651 -2.546650 1.401930
H -3.991979 -2.136231 0.697463
H -1.428807 0.639357 2.622103
H -3.015999 1.151876 3.286197
H -2.662670 -0.587018 3.051234
H -3.311854 -3.181751 -1.511722
H -1.672504 -3.518918 -0.868740
H -3.092862 -4.352123 -0.182520
H -3.066685 1.966523 -1.586518
H -1.701317 1.215229 -2.448926
H -3.333009 1.239748 -3.199242
P 2.413902 0.099378 -0.000877
C 2.870170 1.898158 0.068692
C 3.428568 -0.544257 -1.419693
C 3.297579 -2.044187 -1.688898
C 3.252659 -0.620928 1.491800
C 2.638273 -0.151601 2.813378
C 2.672539 2.665473 -1.241834
H 2.230776 2.330621 0.865240
H 3.924234 1.958633 0.417955
H 3.098579 0.034035 -2.307421
H 4.484886 -0.255797 -1.221616
H 3.156413 -1.722804 1.391186
H 4.336727 -0.380116 1.430853
H 2.255371 -2.312600 -1.950403
H 3.949122 -2.343527 -2.534780
H 3.588910 -2.658554 -0.813183
H 2.758608 0.940876 2.960788
H 1.551593 -0.374625 2.837975
H 3.118880 -0.659408 3.674012
H 3.403526 2.360535 -2.017476
H 1.651540 2.516071 -1.643739
H 2.802189 3.752963 -1.071264
C 0.432717 -2.148859 0.132616
O 0.646718 -3.294447 0.298583
N -0.287260 1.644211 -0.066282
C -0.712798 2.764720 0.007990
S -1.307836 4.260806 0.097078
