33

Ir 0.221843 -0.208646 0.014644
P -2.015776 -0.434558 -0.003708
C -2.814240 0.244911 -1.521606
C -2.892515 0.458506 1.352583
C -2.713184 -2.135497 0.108870
H -2.534221 1.311469 -1.621116
H -3.918423 0.151778 -1.471201
H -2.430996 -0.301401 -2.404800
H -2.661650 1.539045 1.285839
H -2.527563 0.081981 2.327413
H -3.989184 0.309265 1.279736
H -2.297147 -2.757484 -0.706550
H -3.819207 -2.111387 0.040721
H -2.411386 -2.587633 1.073332
N 2.439773 0.262090 -0.006845
C 3.288010 -0.948600 0.023665
C 2.718461 1.023657 -1.247661
C 2.741625 1.101769 1.176525
H 2.484635 0.390681 -2.123978
H 3.790808 1.328223 -1.285660
H 2.071216 1.918912 -1.273360
H 2.523480 0.527357 2.096266
H 2.094548 1.997152 1.156921
H 3.814582 1.406227 1.175323
H 3.054962 -1.592257 -0.843959
H 3.083361 -1.521947 0.946348
H 4.367042 -0.669109 -0.001580
C 0.462085 -2.026011 0.013169
N 0.602469 -3.241525 -0.113975
H 0.689333 -3.921999 0.645728
N -0.056938 1.834287 -0.004881
C -0.662624 2.883108 0.001182
O -1.236534 3.936279 0.009019
