27

Ir 0.009513 -0.089620 0.000172
P 2.275025 0.088794 -0.000145
C 2.951269 1.015213 1.441876
C 2.950598 1.015865 -1.442049
C 3.254358 -1.471887 -0.000752
H 2.478153 2.016272 1.457569
H 4.053744 1.114654 1.372503
H 2.679227 0.483594 2.373955
H 2.479157 2.017748 -1.455777
H 2.676201 0.485927 -2.374392
H 4.053345 1.113259 -1.374190
H 2.994454 -2.067481 0.895747
H 4.341914 -1.257355 -0.000576
H 2.994584 -2.066696 -0.897817
N -2.123994 0.002029 0.000245
C -4.308920 -0.553050 -0.000291
C -3.022618 -1.052634 0.000404
N -4.170966 0.821873 -0.000593
C -2.847179 1.127627 -0.000161
H -4.929200 1.504619 -0.000760
H -5.284133 -1.048543 -0.000766
H -2.684788 -2.093384 0.000727
H -2.428971 2.141494 -0.000217
C 0.061528 -1.959025 0.000119
O 0.129945 -3.129197 -0.000221
C 0.033654 1.959862 0.000196
N 0.043922 3.142737 0.000152
