34

Ir 0.000122 0.149616 0.018663
As 2.413067 0.020747 0.030444
C 3.431399 1.696932 0.105052
C 3.209242 -0.887763 -1.512048
C 3.166979 -0.997520 1.524548
H 3.194643 2.296900 -0.794488
H 4.520021 1.498184 0.147284
H 3.114828 2.264521 1.000832
H 2.982260 -0.307359 -2.426272
H 2.724836 -1.880213 -1.587041
H 4.304811 -0.994675 -1.388234
H 2.912369 -0.484803 2.471329
H 4.265898 -1.095078 1.424672
H 2.683152 -1.992986 1.513095
As -2.412805 0.018172 0.030455
C -3.165301 -0.999800 1.525483
C -3.208457 -0.892031 -1.511283
C -3.432633 1.693516 0.104192
H -2.680398 -1.994748 1.514622
H -4.264151 -1.098571 1.426124
H -2.910798 -0.486051 2.471736
H -2.722753 -1.883857 -1.586131
H -2.982839 -0.311674 -2.425873
H -4.303807 -1.000440 -1.386799
H -3.116154 2.262059 0.999407
H -4.521075 1.493907 0.147050
H -3.196806 2.292973 -0.795941
C -0.001351 1.986826 0.116016
N -0.002507 3.192860 0.263181
C -0.005986 4.460263 -0.382055
H 0.877628 5.059688 -0.074136
H -0.907109 5.044021 -0.095138
H 0.007749 4.368738 -1.491291
Br 0.001539 -2.416224 -0.119235
