30

Ir -0.274578 -0.119382 -0.043560
N -2.395382 -0.122892 0.018960
C -4.671518 -0.767347 0.193772
O -4.505295 0.561949 -0.394616
C -3.188233 0.772466 -0.475762
C -3.243035 -1.188072 0.598699
H -2.930786 -2.167797 0.183743
H -3.081259 -1.216041 1.695444
H -5.121593 -1.418408 -0.583456
H -5.377610 -0.675906 1.041444
H -2.857840 1.706606 -0.952789
P 1.934813 -0.178737 -0.039789
C 5.078623 -0.233992 0.015172
C 4.373351 -1.356897 0.486070
C 2.976998 -1.455843 0.518379
C 3.041268 1.065914 -0.545590
C 4.431392 0.916666 -0.472662
H 6.178739 -0.254165 0.033609
H 4.955742 -2.215107 0.862842
H 2.483972 -2.356424 0.915837
H 2.604033 1.994047 -0.945987
H 5.057776 1.754982 -0.822776
C -0.253073 1.752195 0.001649
N -0.260536 2.964659 -0.056476
C -0.076808 4.166505 0.689947
H 0.806033 4.723315 0.310480
H 0.074246 3.967775 1.773781
H -0.955540 4.834641 0.573049
S -0.414673 -2.523508 -0.124924
H 0.739166 -2.845437 -0.773973
