32

Ir 0.122141 -0.131895 0.016648
N -1.998622 -0.139837 0.013612
C -2.708850 -1.234954 -0.372815
C -4.109672 -1.227225 -0.370316
N -4.840885 -0.167020 0.009782
C -4.132692 0.906289 0.396892
C -2.733848 0.936678 0.402841
H -2.127611 -2.121743 -0.664729
H -4.653685 -2.131727 -0.693220
H -4.696267 1.798099 0.722978
H -2.177962 1.829734 0.719294
P 2.388030 -0.361297 0.029313
C 3.053159 -1.324802 -1.392758
C 3.030309 -1.278226 1.492180
C 3.410559 1.175426 0.011671
H 2.558014 -2.315357 -1.389100
H 4.153097 -1.444450 -1.316212
H 2.795047 -0.806247 -2.336111
H 2.538632 -2.270307 1.509942
H 2.753966 -0.732156 2.414532
H 4.131764 -1.396571 1.438196
H 3.179325 1.755262 -0.903148
H 4.492359 0.933940 0.030707
H 3.154108 1.793395 0.894068
C 0.235865 1.776246 -0.031075
N 0.348063 2.969712 -0.048236
C 0.596016 4.330704 -0.303953
H 0.155522 4.973971 0.487483
H 0.163106 4.643136 -1.279485
H 1.689156 4.532101 -0.333499
C 0.136460 -2.168735 0.022872
N 0.206055 -3.350582 0.002486
