28

Ir -0.062690 -0.246280 0.000014
P 2.206200 -0.295153 0.000201
C 2.984769 0.552139 1.441691
C 2.985209 0.552376 -1.440917
C 3.014721 -1.949579 0.000126
H 2.666227 1.612335 1.452560
H 4.091079 0.499028 1.382840
H 2.634499 0.071045 2.374963
H 2.666249 1.612445 -1.452050
H 2.635661 0.071044 -2.374341
H 4.091510 0.499716 -1.381465
H 2.691485 -2.514111 0.895965
H 4.118753 -1.851024 0.000136
H 2.691492 -2.514005 -0.895781
N -2.182679 0.019061 -0.000025
C -4.407353 -0.331831 -0.000195
C -3.172464 -0.948631 -0.000551
N -4.142828 1.024870 0.000571
C -2.795796 1.205432 0.000693
H -4.835608 1.773882 0.001211
H -5.424403 -0.734672 -0.000447
H -2.929658 -2.015808 -0.001205
H -2.271391 2.167522 0.001264
C -0.173354 -2.069071 -0.000300
O -0.227830 -3.245670 -0.000631
N 0.080263 1.809530 0.000154
C 0.670448 2.866565 -0.000449
O 1.226316 3.930027 -0.001022
