32

Ir -0.100145 -0.095029 -0.022519
As 2.251660 -0.368751 -0.015098
C 3.437077 1.188796 0.022417
C 2.897021 -1.403691 -1.546512
C 2.852565 -1.471528 1.484745
H 3.198302 1.832872 -0.845427
H 4.500412 0.882112 -0.013216
H 3.241219 1.759211 0.950572
H 2.722779 -0.826616 -2.474069
H 2.283743 -2.324560 -1.574553
H 3.971351 -1.653320 -1.443436
H 2.719030 -0.907646 2.427105
H 3.908537 -1.784066 1.367860
H 2.175202 -2.347006 1.488665
N -2.203004 -0.208829 -0.018835
C -5.001199 -0.506572 0.007820
C -4.156145 -1.604603 0.228841
C -2.770500 -1.424473 0.208277
C -3.018626 0.855576 -0.237691
C -4.411656 0.744219 -0.231138
H -6.095572 -0.622261 0.019781
H -4.561660 -2.609309 0.418375
H -2.038752 -2.237562 0.357025
H -2.515879 1.816010 -0.421696
H -5.022335 1.640240 -0.414973
C -0.025579 1.725277 -0.142685
N 0.032627 2.936946 -0.301083
C 0.207477 4.138313 0.451371
H 1.267452 4.475791 0.412996
H -0.071689 4.015028 1.522161
H -0.405506 4.960640 0.026441
F -0.082245 -2.125361 0.132813
