46

Ir 0.114208 -0.359210 0.046414
P 2.342939 0.384902 -0.029491
C 3.288430 0.043423 1.536372
C 2.554775 2.219246 -0.254124
C 2.223176 2.730330 -1.658893
C 3.461042 -0.310082 -1.348157
C 3.700226 -1.819523 -1.276163
C 2.633739 0.654705 2.777769
H 3.326183 -1.062901 1.626358
H 4.334749 0.397213 1.404427
H 1.874322 2.684774 0.488265
H 3.596955 2.477969 0.036066
H 2.976312 -0.043809 -2.310503
H 4.420191 0.252606 -1.304378
H 1.204774 2.418038 -1.962372
H 2.252619 3.838620 -1.682433
H 2.944663 2.364305 -2.417194
H 4.234355 -2.111636 -0.349122
H 2.748605 -2.385472 -1.299777
H 4.321463 -2.155115 -2.131687
H 2.624233 1.762870 2.736674
H 1.580653 0.315826 2.865441
H 3.175265 0.360584 3.700130
C -1.887840 -0.841633 0.079824
C -4.171392 -0.610618 0.533995
C -3.988634 -1.633754 -0.598616
H -4.818812 -0.976212 1.357226
H -4.596250 -1.402393 -1.497570
C -1.951276 -2.236742 -1.983273
H -2.437756 -1.962097 -2.943376
H -0.879325 -1.961232 -2.023094
H -2.039286 -3.337976 -1.844208
C -2.514017 0.478896 2.100859
H -3.035629 0.117885 3.012526
H -1.421243 0.484250 2.275112
H -2.845340 1.517414 1.877734
N -2.791112 -0.405901 0.989070
N -2.555567 -1.517628 -0.886136
H -4.235416 -2.674396 -0.280926
H -4.586272 0.357413 0.169440
C 0.627771 -2.082852 0.442833
N 0.940315 -3.256847 0.617318
H 1.080511 -3.741109 1.506952
N -0.597193 1.540258 -0.310172
C -1.408363 2.424929 -0.372696
S -2.507474 3.608317 -0.430633
