30

Ir 0.159543 -0.084327 0.002644
P 2.427373 0.069375 -0.002835
C 3.111099 1.128963 1.339534
C 3.127139 0.817312 -1.533871
C 3.384665 -1.496629 0.172014
H 2.636274 2.125492 1.255821
H 4.213883 1.216454 1.260042
H 2.837760 0.690447 2.318583
H 2.654086 1.808844 -1.670158
H 2.862358 0.180199 -2.399604
H 4.229324 0.919191 -1.463451
H 3.110722 -1.988923 1.125175
H 4.475353 -1.298552 0.157122
H 3.121577 -2.181545 -0.657190
N -1.984594 0.001386 -0.003766
C -4.800029 0.132695 0.011613
C -4.026407 1.169218 0.551891
C -2.630946 1.073438 0.523735
C -2.736106 -1.001253 -0.528063
C -4.133598 -0.971047 -0.541031
H -5.899363 0.183036 0.019685
H -4.492241 2.060913 0.995865
H -1.983085 1.874652 0.907815
H -2.181159 -1.852697 -0.946433
H -4.685129 -1.813789 -0.982210
C 0.201251 -1.949492 0.198058
O 0.274976 -3.114844 0.312840
C 0.211003 1.945903 -0.213175
C 0.261292 3.181100 -0.332313
H 0.280394 4.256599 -0.448855
