25

Ir -0.152590 0.030890 -0.028921
N -2.206912 -0.108773 -0.004884
C -4.419570 0.294680 0.067454
C -3.172881 0.884730 0.016539
N -4.186667 -1.068150 0.076316
C -2.846078 -1.285939 0.031959
H -4.896184 -1.799660 0.114096
H -5.425925 0.722373 0.096590
H -2.903127 1.944937 -0.002695
H -2.304475 -2.242177 0.018354
N 1.893350 -0.078776 -0.012573
C 4.708450 -0.350562 0.087205
C 4.108789 0.883998 -0.205171
C 2.717029 0.984045 -0.247395
C 2.478347 -1.282386 0.270520
C 3.863886 -1.445497 0.325330
H 5.802947 -0.454145 0.131192
H 4.711165 1.782626 -0.402738
H 2.222709 1.939702 -0.467101
H 1.752423 -2.100741 0.417233
H 4.270215 -2.439926 0.562334
C -0.187015 1.847130 0.134844
O -0.237172 3.025980 0.188262
O -0.199000 -2.015183 -0.234420
H 0.004951 -2.209223 -1.170848
