27

Ir -0.000086 0.058639 0.000242
N -2.068684 -0.010788 -0.007349
C -4.888690 -0.147547 -0.013047
C -4.120173 -1.038060 -0.775187
C -2.725948 -0.945211 -0.750427
C -2.818140 0.850677 0.735396
C -4.213967 0.812189 0.755707
H -5.987608 -0.200736 -0.015603
H -4.588186 -1.816515 -1.394563
H -2.091411 -1.638195 -1.318504
H -2.259772 1.586872 1.329186
H -4.758256 1.537228 1.377690
N 2.068633 -0.010609 0.007353
C 4.888583 -0.147628 0.011283
C 4.120527 -1.036820 0.775427
C 2.726287 -0.943851 0.751490
C 2.817606 0.849624 -0.737277
C 4.213421 0.810961 -0.758521
H 5.987496 -0.200965 0.013120
H 4.588908 -1.814306 1.395738
H 2.092062 -1.635831 1.321144
H 2.258923 1.584957 -1.331839
H 4.757343 1.534944 -1.382053
C 0.000121 1.934493 0.000519
O 0.000815 3.105338 0.000976
C 0.000088 -1.989620 0.000437
N 0.000383 -3.171542 0.000633
