34

Ir 0.234358 -0.236287 -0.056080
P 2.555781 0.059581 0.031356
C 3.149288 0.651862 1.671921
C 3.166022 1.360979 -1.121669
C 3.638274 -1.386742 -0.331428
H 2.557729 1.551248 1.932010
H 4.231354 0.894757 1.656755
H 2.950303 -0.127310 2.432970
H 2.581019 2.280278 -0.923867
H 2.972489 1.041536 -2.164031
H 4.248412 1.560408 -0.984941
H 3.409337 -2.198989 0.385794
H 4.712387 -1.121265 -0.260486
H 3.414977 -1.759320 -1.350227
C -1.824636 -0.255384 -0.060082
C -3.997692 0.287049 -0.466254
C -3.992641 -0.725125 0.456988
H -4.826800 0.836570 -0.922118
H -4.816662 -1.238348 0.961797
C -2.209632 -2.082784 1.603099
H -2.191741 -3.068860 1.095840
H -1.182299 -1.833199 1.928582
H -2.883026 -2.129661 2.479961
C -2.245414 1.584100 -1.712944
H -2.328182 2.591076 -1.256952
H -1.187246 1.395043 -1.970177
H -2.870527 1.533319 -2.625534
N -2.671360 0.555465 -0.772468
N -2.662008 -1.038870 0.694424
C 0.345832 -1.997785 -0.537582
O 0.416393 -3.133402 -0.840442
N 0.139521 1.750343 0.475642
C -0.338099 2.846649 0.648888
O -0.786983 3.949357 0.808399
