28

Ir -0.160508 0.109082 0.007134
P -2.434231 -0.041145 0.000290
C -3.093913 -1.127150 1.331508
C -3.115782 -0.778515 -1.542353
C -3.387331 1.522092 0.196329
H -2.585938 -2.106120 1.233682
H -4.193245 -1.246394 1.247945
H -2.834279 -0.690628 2.315152
H -2.611546 -1.753450 -1.687712
H -2.867054 -0.121488 -2.397875
H -4.214566 -0.912292 -1.474352
H -3.110058 2.002562 1.154509
H -4.477930 1.324233 0.181776
H -3.125601 2.216637 -0.625225
N 1.984283 0.027776 0.002646
C 4.795184 -0.099842 0.013054
C 4.025985 -1.113067 0.601662
C 2.630241 -1.018944 0.576351
C 2.729196 1.008123 -0.568666
C 4.126748 0.978856 -0.584955
H 5.894629 -0.148795 0.019183
H 4.495372 -1.983083 1.083182
H 1.982026 -1.804220 0.992560
H 2.169476 1.838327 -1.022418
H 4.676638 1.800957 -1.065255
C -0.205354 1.914923 0.221310
O -0.255198 3.084135 0.349741
Cl -0.188446 -2.281457 -0.281809
