45

Ir 0.055502 -0.450585 -0.061375
P -2.281014 -0.087558 0.032800
C -3.018199 0.751476 -1.455762
C -2.760335 1.042790 1.427599
C -2.272765 0.568225 2.798277
C -3.415509 -1.542151 0.289394
C -3.527476 -2.517547 -0.885418
C -2.314917 2.043544 -1.879178
H -2.969150 0.003981 -2.275164
H -4.096332 0.924036 -1.240482
H -2.314920 2.029362 1.185553
H -3.865604 1.162403 1.399070
H -3.029254 -2.062800 1.190743
H -4.413938 -1.132156 0.557940
H -1.169169 0.462370 2.800108
H -2.550283 1.297780 3.586011
H -2.708768 -0.411607 3.082404
H -3.962703 -2.035941 -1.784052
H -2.545363 -2.942938 -1.167340
H -4.189780 -3.365903 -0.617338
H -2.337824 2.822392 -1.090975
H -1.248608 1.855723 -2.113062
H -2.798701 2.467926 -2.782382
C 2.112858 -0.480020 -0.094308
C 4.301423 0.196942 -0.583601
C 4.347196 -0.938128 0.452673
H 4.951414 0.013708 -1.463795
H 4.944161 -0.684640 1.352840
C 2.514527 -2.028660 1.819528
H 3.041114 -1.803634 2.770886
H 1.424313 -1.911938 1.970639
H 2.731556 -3.083584 1.536705
C 2.407591 1.124314 -1.981964
H 2.993762 0.988487 -2.914962
H 1.342200 0.900474 -2.179107
H 2.489553 2.183636 -1.652311
N 2.885064 0.211804 -0.964761
N 2.929591 -1.105060 0.788871
H 4.756810 -1.885698 0.030563
H 4.587834 1.182345 -0.148301
C -0.058442 -2.250624 -0.390845
O -0.100320 -3.409692 -0.589516
N 0.233552 1.546107 0.320577
C 0.341366 2.737159 0.415640
S 0.462528 4.343645 0.519424
