28

Ir 0.067734 -0.412360 -0.000084
P 2.357843 -0.228424 0.000047
C 5.461727 0.095321 0.000182
C 4.924641 -1.204955 0.000203
C 3.552257 -1.485856 0.000144
C 3.265672 1.249326 0.000055
C 4.665323 1.256304 0.000113
H 6.556144 0.210289 0.000225
H 5.624364 -2.057327 0.000266
H 3.199545 -2.529198 0.000165
H 2.694374 2.190332 0.000013
H 5.173053 2.235289 0.000107
P -2.234194 -0.419293 -0.000086
C -5.354607 -0.408408 0.000291
C -4.677224 0.825432 0.000340
C -3.283684 0.962966 0.000175
C -3.297753 -1.789711 -0.000088
C -4.691162 -1.648838 0.000080
H -6.455047 -0.402238 0.000425
H -5.279429 1.749252 0.000515
H -2.825190 1.964880 0.000200
H -2.841776 -2.792228 -0.000237
H -5.301959 -2.567013 0.000039
C 0.140206 -2.260807 -0.000081
O 0.175379 -3.430462 -0.000085
N -0.033806 1.608787 -0.000095
C -0.310241 2.778299 -0.000086
S -0.696978 4.339574 -0.000083
