33

Ir 0.133730 -0.129374 0.023377
N -1.983790 -0.145261 0.019333
C -2.683056 -1.178323 -0.522371
C -4.083917 -1.178596 -0.525346
N -4.822870 -0.188370 0.001098
C -4.122790 0.822118 0.542876
C -2.723961 0.860348 0.557591
H -2.087256 -2.009239 -0.928024
H -4.622896 -2.028673 -0.978910
H -4.693657 1.653144 0.993220
H -2.170887 1.701789 0.997707
P 2.395880 -0.323863 0.027409
C 3.081343 -1.274836 -1.394458
C 3.067552 -1.217996 1.492158
C 3.391991 1.231231 0.000746
H 2.584931 -2.264553 -1.401784
H 4.181187 -1.391746 -1.311006
H 2.828324 -0.749462 -2.335513
H 2.574288 -2.208514 1.531185
H 2.802074 -0.658378 2.409671
H 4.168623 -1.334281 1.425002
H 3.148767 1.801632 -0.916874
H 4.478560 1.011594 0.021138
H 3.121585 1.850170 0.878225
C 0.207916 1.777962 -0.000434
N 0.281008 2.980081 0.033594
C 0.458631 4.299185 -0.438157
H -0.125395 5.021812 0.169918
H 0.137455 4.401935 -1.498581
H 1.527660 4.598397 -0.372325
C 0.140589 -2.166592 0.032946
C 0.169348 -3.409468 0.034384
H 0.168869 -4.491240 0.048009
