29

Ir 0.062096 0.110066 0.031399
As 2.503492 -0.015708 -0.027199
C 3.535541 1.648563 -0.010162
C 3.173905 -0.951620 -1.606516
C 3.281162 -1.050894 1.437381
H 3.196033 2.286262 -0.848330
H 4.618901 1.440425 -0.104699
H 3.337929 2.181143 0.939638
H 2.914189 -0.366136 -2.508500
H 2.646276 -1.923765 -1.640113
H 4.269917 -1.097777 -1.544466
H 3.094645 -0.522744 2.391434
H 4.368284 -1.196978 1.285181
H 2.749027 -2.021112 1.449359
P -2.202719 0.017332 0.008513
C -5.331529 -0.154978 -0.055253
C -4.591819 -1.350212 0.027260
C -3.194176 -1.407826 0.062726
C -3.342415 1.324909 -0.091739
C -4.727133 1.114192 -0.112862
H -6.430212 -0.216050 -0.078080
H -5.147245 -2.302794 0.065704
H -2.659200 -2.368677 0.122943
H -2.934996 2.346635 -0.148315
H -5.382711 1.998936 -0.181266
C 0.053678 1.945138 0.067383
N 0.059351 3.167537 -0.012292
H 0.052948 3.843389 0.755178
Cl 0.199506 -2.304344 0.010190
