33

Ir 0.024343 0.061929 -0.006253
C -1.969262 0.004385 -0.019444
C -4.166049 0.255505 0.545788
C -4.114973 -0.522830 -0.579958
H -5.017843 0.611347 1.133042
H -4.914196 -0.985441 -1.166814
C -2.268295 -1.455214 -2.021612
H -1.299200 -1.024434 -2.337765
H -2.086156 -2.499309 -1.698265
H -2.993392 -1.428714 -2.857671
C -2.452168 1.365978 2.018807
H -1.356078 1.250723 2.131359
H -2.696899 2.436754 1.859892
H -2.961601 1.005968 2.934431
N -2.852499 0.565419 0.874974
N -2.774889 -0.659611 -0.913303
N 2.168447 -0.017089 0.015730
C 4.990707 -0.143455 0.041314
C 4.316792 0.796210 -0.753088
C 2.919221 0.829869 -0.737951
C 2.824570 -0.930220 0.780677
C 4.220009 -1.018495 0.819996
H 6.090150 -0.192583 0.051621
H 4.863611 1.508224 -1.388437
H 2.360106 1.560654 -1.339442
H 2.179734 -1.617017 1.348764
H 4.689034 -1.779289 1.461030
C 0.031095 1.907491 -0.374580
N 0.038396 3.083193 -0.719086
H 0.038210 3.926410 -0.141037
C -0.032105 -1.947002 0.414261
C -0.084145 -3.162867 0.665117
H -0.118494 -4.221345 0.886639
