32

Ir 0.158214 -0.391203 0.019820
N 2.253364 -0.046954 -0.016621
C 2.774610 1.029284 -0.663717
C 4.154963 1.265511 -0.678433
N 5.044145 0.465002 -0.068675
C 4.519719 -0.593907 0.570032
C 3.146426 -0.861754 0.605602
H 2.053818 1.700514 -1.152145
H 4.547554 2.147434 -1.213848
H 5.218937 -1.273839 1.087514
H 2.740370 -1.738786 1.129712
C -1.841282 -0.573573 0.035048
C -3.982474 -1.107847 -0.529968
C -4.036493 -0.260744 0.544314
H -4.779627 -1.589079 -1.104340
H -4.890862 0.148402 1.091645
C -2.356941 0.951242 1.964133
H -1.293524 0.776521 2.209945
H -2.482655 2.008909 1.654337
H -2.986145 0.738251 2.849691
C -2.143241 -2.115298 -1.916182
H -1.095297 -1.822096 -2.116355
H -2.175309 -3.189537 -1.640823
H -2.756135 -1.951579 -2.823583
N -2.638715 -1.285751 -0.829356
N -2.726661 0.049749 0.879278
C 0.362038 -2.191966 0.340902
N 0.500505 -3.359434 0.690143
H 0.598604 -4.188621 0.099769
N -0.122861 1.617600 -0.273760
C -0.627134 2.710285 -0.280617
S -1.304489 4.172955 -0.263212
