48

Ir -0.010831 0.061153 -0.020134
P 2.344437 -0.014933 -0.014351
C 3.164336 -0.676193 -1.551181
C 3.027590 -1.058094 1.357367
C 2.618297 -0.565256 2.747443
C 3.217134 1.614818 0.212053
C 3.159713 2.557271 -0.993461
C 2.950744 -2.160651 -1.851016
H 2.766705 -0.052354 -2.378952
H 4.247609 -0.436507 -1.459546
H 2.608313 -2.068639 1.171989
H 4.132170 -1.112269 1.239827
H 2.746162 2.090229 1.097395
H 4.270552 1.387538 0.487278
H 1.513372 -0.499545 2.822424
H 2.975894 -1.263174 3.531568
H 3.034558 0.436610 2.978921
H 3.708165 2.148423 -1.865466
H 2.117172 2.757869 -1.308548
H 3.621402 3.533517 -0.741347
H 3.408050 -2.806838 -1.075019
H 1.873743 -2.413541 -1.890772
H 3.417622 -2.424223 -2.822165
P -2.366813 0.013477 -0.013423
C -3.195953 -1.643228 0.134465
C -3.218497 0.774592 -1.482635
C -2.795660 2.204872 -1.820209
C -3.068674 0.960356 1.424387
C -2.574694 0.443619 2.778381
C -3.185613 -2.496367 -1.136526
H -2.646127 -2.168692 0.942035
H -4.232783 -1.454887 0.490227
H -2.996278 0.100280 -2.335495
H -4.313339 0.706464 -1.295552
H -2.754885 2.015305 1.276661
H -4.178213 0.934850 1.351503
H -1.717267 2.251991 -2.067883
H -3.364441 2.580074 -2.695232
H -2.973703 2.908605 -0.982249
H -2.909735 -0.595776 2.971243
H -1.465615 0.448015 2.813713
H -2.954283 1.076821 3.605904
H -3.780078 -2.042387 -1.954987
H -2.147827 -2.654577 -1.489152
H -3.623090 -3.493854 -0.926931
C -0.046676 1.875961 0.062501
O -0.071708 3.048912 0.181033
Cl 0.061601 -2.350455 0.102228
