31

Ir -0.042951 -0.104487 0.010844
P -2.302033 -0.225165 0.042356
C -2.962986 -1.212885 1.451264
C -3.028439 -1.064657 -1.429319
C -3.252296 1.352993 0.143377
H -2.466048 -2.201850 1.411244
H -4.064606 -1.327035 1.390163
H -2.684956 -0.717674 2.401514
H -2.531883 -2.050896 -1.514822
H -2.793580 -0.473596 -2.335470
H -4.126311 -1.187119 -1.329857
H -2.935580 1.911376 1.045472
H -4.342850 1.158601 0.186696
H -3.023219 1.972001 -0.745883
N 2.079770 -0.184263 0.002553
C 4.382645 0.375309 0.159742
O 4.162612 -1.046418 -0.081247
C 2.836389 -1.227128 -0.121832
C 2.964168 0.989920 0.140022
H 2.790833 1.675285 -0.714627
H 2.705986 1.543290 1.064139
H 5.052368 0.755597 -0.636513
H 4.896452 0.474973 1.137621
H 2.445385 -2.248741 -0.254088
C -0.069778 1.725560 0.129495
N -0.093471 2.933293 0.292020
C -0.230986 4.171980 -0.400285
H 0.490045 4.921747 -0.011696
H -1.248327 4.594394 -0.245327
H -0.067387 4.066439 -1.496320
Cl -0.076228 -2.528365 -0.157021
