26

Ir -0.000001 -0.418887 -0.005022
P 2.305166 -0.417118 0.008764
C 5.433819 -0.577999 0.048184
C 4.702494 -1.776845 -0.028317
C 3.303872 -1.838098 -0.051378
C 3.437065 0.895260 0.099673
C 4.821173 0.687266 0.109273
H 6.532937 -0.631675 0.061474
H 5.260840 -2.726875 -0.072466
H 2.798920 -2.814944 -0.111611
H 3.017646 1.912105 0.148423
H 5.470128 1.577120 0.169104
P -2.305135 -0.417114 0.008836
C -5.433786 -0.578078 0.048104
C -4.821164 0.687175 0.109846
C -3.437067 0.895204 0.100396
C -3.303807 -1.838077 -0.052011
C -4.702438 -1.776865 -0.028964
H -6.532904 -0.631771 0.061338
H -5.470149 1.576977 0.170116
H -3.017650 1.912023 0.149679
H -2.798847 -2.814891 -0.112699
H -5.260752 -2.726890 -0.073591
C 0.000022 -2.257334 0.001027
O 0.000037 -3.428651 -0.001283
I -0.000037 2.310117 -0.045128
