28

Ir 0.130603 0.110334 -0.040006
N 2.196266 0.088581 -0.052784
C 4.359063 0.679586 0.193038
C 3.054500 1.097077 0.359179
N 4.275215 -0.597347 -0.328264
C 2.963518 -0.926829 -0.469436
H 5.058637 -1.205251 -0.565920
H 5.313827 1.171395 0.400125
H 2.672074 2.046473 0.743176
H 2.579178 -1.892013 -0.817620
N -1.915215 0.053859 -0.046438
C -4.739640 -0.052032 -0.069856
C -4.058386 0.915035 0.684841
C -2.661975 0.937175 0.674366
C -2.579300 -0.887014 -0.777382
C -3.974060 -0.965166 -0.809493
H -5.839106 -0.093068 -0.079826
H -4.599620 1.655719 1.291309
H -2.093023 1.672575 1.258702
H -1.942687 -1.593432 -1.326892
H -4.447309 -1.747719 -1.420092
C 0.114518 1.935467 -0.260978
N 0.097117 3.131979 -0.476516
C 0.056257 4.436064 0.088638
H -0.853828 4.979050 -0.245986
H 0.928566 5.036656 -0.248279
H 0.058107 4.418567 1.202223
Br 0.152232 -2.420010 0.329717
