27

Ir -0.041853 0.128855 -0.021177
N -2.100571 0.060827 -0.022938
C -4.264317 0.576899 -0.396566
C -2.962751 1.000795 -0.570126
N -4.175942 -0.632396 0.265821
C -2.863219 -0.917725 0.481998
H -4.956215 -1.225563 0.546613
H -5.220206 1.022747 -0.686214
H -2.581052 1.908447 -1.046405
H -2.474908 -1.829601 0.948882
N 1.995228 0.120841 -0.044328
C 4.249207 -0.524462 0.257460
O 4.120710 0.652699 -0.598699
C 2.801966 0.849325 -0.752954
C 2.836205 -0.737318 0.826759
H 2.719561 -0.388319 1.873860
H 2.468947 -1.780612 0.766815
H 5.025943 -0.312227 1.016542
H 4.587062 -1.365940 -0.383957
H 2.486062 1.631655 -1.456433
C -0.052087 1.958152 -0.021104
N -0.028219 3.174723 -0.121027
C -0.032561 4.362199 0.672913
H -0.945192 4.963149 0.470241
H 0.836470 5.005217 0.417064
H 0.004104 4.144577 1.763488
Br 0.005665 -2.439776 -0.038379
