35

Ir -0.388310 -0.223784 -0.000695
As 1.948882 -0.286757 -0.008769
C 2.813824 0.468068 -1.599433
C 2.794664 -2.057007 0.121175
C 2.867418 0.699448 1.420186
H 2.504003 -0.121726 -2.482686
H 3.917438 0.463255 -1.502096
H 2.441106 1.503599 -1.719113
H 2.427138 -2.692625 -0.707267
H 2.517032 -2.522176 1.086892
H 3.896690 -1.966338 0.059732
H 2.545408 1.756848 1.362760
H 3.968230 0.632214 1.313343
H 2.551336 0.286460 2.396692
N -2.627462 -0.285665 -0.019072
C -3.243898 1.048326 -0.171728
C -3.029844 -1.155426 -1.151881
C -3.067071 -0.899028 1.258135
H -2.703119 -0.689284 -2.100221
H -4.137437 -1.289172 -1.163408
H -2.518855 -2.128881 -1.034053
H -2.772585 -0.240213 2.096519
H -2.548607 -1.869959 1.364691
H -4.174208 -1.036441 1.262076
H -2.894358 1.515642 -1.110399
H -2.941210 1.694798 0.672349
H -4.355713 0.963454 -0.189644
C -0.263147 1.603234 -0.208695
N -0.134112 2.804922 -0.432574
C -0.096938 4.003739 0.353095
H -0.963352 4.657465 0.110701
H 0.815946 4.594017 0.121728
H -0.112134 3.805358 1.449446
O -0.666784 -2.222164 0.217042
H 0.139291 -2.747520 0.354895
