30

Ir 0.139709 0.081910 -0.031561
C -1.862395 -0.028592 -0.008966
C -4.057720 0.332615 0.489763
C -3.998687 -0.729190 -0.373139
H -4.912283 0.822458 0.965836
H -4.791898 -1.354383 -0.793638
C -2.159186 -1.992888 -1.535407
H -1.222940 -1.644035 -2.009587
H -1.924967 -2.899070 -0.942649
H -2.916426 -2.219821 -2.309724
C -2.363826 1.854350 1.562045
H -1.332803 1.671432 1.919129
H -2.383513 2.813975 1.005711
H -3.054981 1.914480 2.424168
N -2.749698 0.744241 0.704599
N -2.659230 -0.931065 -0.671821
N 2.260695 0.017325 0.012476
C 4.515636 -0.703597 0.266023
O 4.413601 0.685407 -0.176986
C 3.107114 0.957135 -0.266575
C 3.051095 -1.183788 0.372743
H 2.760189 -1.524258 1.384910
H 2.794803 -2.007592 -0.321516
H 5.059457 -0.707620 1.231975
H 5.116845 -1.252658 -0.485495
H 2.836687 1.975965 -0.579830
C 0.090316 1.841904 -0.659421
O 0.038629 2.951771 -1.037964
C 0.134555 -1.848835 0.667322
N 0.127523 -2.971651 1.036768
