49

Ir 1.252860 0.036775 0.015903
P -1.025974 0.008373 -0.011681
C -1.094624 -1.440792 2.386858
C -1.740093 -1.254599 1.144938
C -1.789406 -0.423860 -1.644121
C -1.065804 -1.234857 -2.542784
C -1.637557 -1.616013 -3.766183
C -2.930139 -1.186243 -4.108092
C -3.652770 -0.372724 -3.220326
C -3.087519 0.007619 -1.992888
C -1.921965 1.553635 0.454959
C -1.798585 2.681667 -0.386179
C -2.462964 3.873074 -0.065397
C -3.243762 3.957934 1.099757
C -3.360989 2.842936 1.942999
C -2.704315 1.642975 1.622783
C -2.888711 -2.011714 0.843285
C -3.385260 -2.941126 1.772044
C -2.745234 -3.116912 3.009161
C -1.599544 -2.362925 3.315873
H -0.182204 -0.860991 2.603664
H -0.046842 -1.554896 -2.277034
H -1.063619 -2.248072 -4.461282
H -3.373613 -1.480357 -5.072028
H -4.663992 -0.026880 -3.485143
H -3.656170 0.651256 -1.304378
H -1.174147 2.626928 -1.289204
H -2.360158 4.746702 -0.727152
H -3.760378 4.897251 1.350938
H -3.970837 2.901442 2.857751
H -2.807720 0.772217 2.286867
H -3.394728 -1.883408 -0.125236
H -4.279058 -3.534124 1.523623
H -3.137495 -3.846136 3.734906
H -1.092033 -2.496930 4.283868
N 3.371385 0.062770 0.001805
C 5.651984 -0.520078 -0.283350
O 5.476620 0.798509 0.318273
C 4.158791 0.987628 0.448450
C 4.213114 -0.995681 -0.589266
H 3.961096 -1.975924 -0.139195
H 3.991166 -1.065053 -1.673734
H 6.183484 -1.156389 0.453596
H 6.290376 -0.401456 -1.180478
H 3.806022 1.931046 0.891505
C 1.227790 -1.791684 0.076559
N 1.243107 -3.020062 0.025009
H 1.055068 -3.644469 0.815311
Cl 1.389774 2.431432 0.002071
