24

Ir 0.165994 -0.407374 -0.002838
N 2.164798 0.090569 -0.003691
C 4.064561 1.301463 -0.064392
C 2.688030 1.374445 -0.099302
N 4.370275 -0.039471 0.052893
C 3.208273 -0.745828 0.087699
H 5.304711 -0.444479 0.105945
H 4.831914 2.079407 -0.112579
H 2.029436 2.242907 -0.182582
H 3.148882 -1.834877 0.174330
N -1.871521 -0.770203 -0.003405
C -3.863326 -1.833726 -0.020526
C -2.496018 -2.011437 -0.026829
N -4.058616 -0.468705 0.007107
C -2.848777 0.150608 0.017204
H -4.956204 0.015637 0.018158
H -4.688896 -2.550892 -0.033477
H -1.922724 -2.942285 -0.046526
H -2.720297 1.237950 0.037898
C 0.549606 -2.189588 -0.000332
O 0.803543 -3.341794 0.004469
N -0.276978 1.588087 -0.001884
C -0.815996 2.661699 0.011016
S -1.590659 4.078189 0.027327
