36

Ir -0.000495 -0.008554 0.013368
P 2.328684 -0.000165 0.039209
C 3.082175 -0.772833 -1.453711
C 3.027310 -0.977529 1.436299
C 3.186956 1.626255 0.171687
H 2.595670 -1.756169 -1.608251
H 4.179866 -0.891398 -1.347126
H 2.854923 -0.142171 -2.335017
H 2.547306 -1.976037 1.430984
H 2.758399 -0.479701 2.388073
H 4.129545 -1.075469 1.359461
H 2.907138 2.252628 -0.697760
H 4.288459 1.501856 0.198499
H 2.847152 2.138887 1.092575
P -2.314388 -0.253864 0.026178
C -2.924318 -1.981550 -0.144825
C -3.215303 0.657585 -1.301687
C -3.132846 0.345496 1.566511
H -2.545131 -2.395287 -1.099499
H -4.031302 -2.030789 -0.115060
H -2.486526 -2.586192 0.673283
H -2.859800 0.296240 -2.285977
H -2.973834 1.735568 -1.220965
H -4.312783 0.514786 -1.224540
H -2.729298 -0.225369 2.425043
H -4.234792 0.224590 1.520421
H -2.877280 1.413228 1.712578
C -0.152489 1.857364 0.108339
N -0.253847 3.055939 0.222750
C -0.283429 4.371968 -0.301863
H 0.659170 4.910126 -0.062441
H -1.115106 4.956290 0.145265
H -0.411454 4.375758 -1.407388
N 0.182058 -2.116097 -0.132540
O 0.159444 -2.794424 0.912800
O 0.291496 -2.659544 -1.246331
