41

Ir 0.000062 -0.425396 -0.108706
C 2.062582 -0.318546 -0.077550
C 4.319176 -0.740742 0.440052
C 4.218694 0.573937 -0.349895
H 4.883045 -0.637634 1.390478
H 4.898190 0.611899 -1.226486
C 2.303339 1.642179 -1.602007
H 2.930062 1.738841 -2.513642
H 1.267345 1.387324 -1.893164
H 2.287195 2.617654 -1.066901
C 2.538911 -2.186269 1.503042
H 3.010060 -2.115498 2.506857
H 1.437477 -2.177079 1.614478
H 2.852160 -3.149162 1.037017
N 2.910360 -1.054760 0.689838
N 2.813480 0.577130 -0.766294
H 4.431864 1.467013 0.282848
H 4.799439 -1.557080 -0.150102
C -2.062505 -0.318784 -0.077580
C -4.319034 -0.741277 0.440034
C -4.218747 0.573360 -0.350023
H -4.799216 -1.557720 -0.150032
H -4.432078 1.466463 0.282623
C -2.303504 1.641940 -1.601998
H -2.287503 2.617363 -1.066795
H -1.267463 1.387256 -1.893148
H -2.930214 1.738595 -2.513641
C -2.538555 -2.186414 1.503198
H -2.851824 -3.149416 1.037414
H -1.437109 -2.177152 1.614489
H -3.009579 -2.115451 2.507058
N -2.910168 -1.055108 0.689786
N -2.813518 0.576746 -0.766392
H -4.898228 0.611129 -1.226635
H -4.882877 -0.638180 1.390478
C 0.000188 -2.132156 -0.802719
N 0.000104 -3.219833 -1.372111
H 0.000221 -4.144560 -0.935583
N 0.000011 1.490103 0.629340
C -0.000243 2.673642 0.820285
S -0.000591 4.277860 1.034032
