28

Ir -0.102295 0.175696 -0.003797
N -2.154983 0.134765 -0.058997
C -4.416195 -0.535599 0.190706
O -4.290520 0.820669 -0.338603
C -2.980397 1.088083 -0.370811
C -2.975880 -1.076922 0.201420
H -2.772385 -1.814090 -0.602333
H -2.660600 -1.539315 1.154913
H -5.108762 -1.095335 -0.466277
H -4.863069 -0.456340 1.203769
H -2.682711 2.103927 -0.665822
N 1.955411 0.086119 0.015169
C 4.770689 -0.042507 -0.035934
C 3.993235 -0.906666 -0.820018
C 2.598995 -0.816347 -0.776685
C 2.710223 0.920341 0.782716
C 4.106192 0.885580 0.780024
H 5.869723 -0.091303 -0.057551
H 4.455402 -1.658446 -1.475911
H 1.942268 -1.492877 -1.347013
H 2.152322 1.627606 1.411047
H 4.660112 1.585781 1.421863
C -0.081758 2.022893 -0.113999
N -0.067775 3.235871 -0.279687
H -0.102507 3.983237 0.417392
N -0.125460 -1.948888 0.188572
O 0.253395 -2.672375 -0.755811
O -0.539632 -2.457004 1.246716
