51

Ir 1.285184 -0.075749 0.023196
P -1.077406 -0.001645 -0.007930
C -1.247355 -2.036680 1.905010
C -1.862007 -1.490105 0.757861
C -1.787313 0.069952 -1.711490
C -1.021920 -0.438436 -2.781310
C -1.544005 -0.440630 -4.083750
C -2.828404 0.070752 -4.330197
C -3.591159 0.588066 -3.269999
C -3.075294 0.589593 -1.964799
C -1.902214 1.404396 0.853740
C -1.783967 2.699908 0.302278
C -2.374850 3.794552 0.948417
C -3.075966 3.613991 2.152193
C -3.187986 2.330180 2.707606
C -2.604881 1.227619 2.062512
C -3.046189 -2.071650 0.263222
C -3.608993 -3.182240 0.911725
C -3.001019 -3.715007 2.059747
C -1.819902 -3.139379 2.556013
H -0.306747 -1.594069 2.271771
H -0.005851 -0.813789 -2.578338
H -0.938357 -0.837122 -4.913094
H -3.234404 0.074108 -5.353606
H -4.595338 0.997621 -3.459856
H -3.672251 1.006176 -1.138951
H -1.224033 2.850748 -0.631349
H -2.277794 4.799617 0.510084
H -3.535559 4.476941 2.658406
H -3.737491 2.180009 3.649685
H -2.704426 0.224282 2.502402
H -3.527995 -1.663309 -0.637623
H -4.529401 -3.636084 0.513066
H -3.444611 -4.586975 2.564679
H -1.333194 -3.558017 3.450240
P 3.616985 0.028862 0.037843
C 4.305292 0.775956 1.571061
C 4.303677 1.075349 -1.310093
C 4.527470 -1.563735 -0.128959
H 3.818519 1.762615 1.696966
H 5.406814 0.887806 1.507729
H 4.039013 0.137969 2.435723
H 3.816219 2.066384 -1.229513
H 4.036386 0.628149 -2.286937
H 5.405258 1.172309 -1.226695
H 4.241724 -2.236999 0.702368
H 5.624057 -1.401147 -0.114714
H 4.237440 -2.052464 -1.079292
C 1.285995 -1.888525 -0.177929
O 1.326926 -3.055757 -0.312016
Cl 1.436454 2.314244 0.275942
