29

Ir 0.167487 0.075577 -0.027664
C -1.827503 0.019365 -0.014873
C -4.016352 0.361321 0.529503
C -3.983294 -0.505226 -0.531730
H -4.859455 0.774484 1.091046
H -4.793425 -0.999272 -1.076471
C -2.154436 -1.557820 -1.920498
H -1.504154 -0.970130 -2.596850
H -1.544585 -2.371435 -1.478188
H -3.016620 -1.966675 -2.479915
C -2.277926 1.561025 1.900535
H -1.189301 1.414693 2.042890
H -2.470751 2.619248 1.628759
H -2.817612 1.315779 2.836213
N -2.697295 0.667055 0.833616
N -2.647950 -0.699403 -0.851189
N 2.304472 -0.011750 0.001958
C 4.422112 -0.476437 0.618776
C 3.090757 -0.693626 0.915976
N 4.428187 0.351249 -0.488110
C 3.136826 0.611933 -0.834998
H 5.253117 0.710778 -0.968345
H 5.342449 -0.829245 1.093375
H 2.625229 -1.296720 1.703284
H 2.836223 1.252517 -1.670439
C 0.178077 1.835520 -0.557279
O 0.194458 2.964460 -0.897622
S 0.083307 -2.225319 0.745067
H 1.232321 -2.670367 0.158291
