33

Ir 0.084500 -0.085697 0.032279
N 2.206837 0.034494 -0.010777
C 2.852422 1.066557 -0.620044
C 4.250771 1.128807 -0.655412
N 5.046612 0.199590 -0.101194
C 4.402989 -0.813189 0.502542
C 3.008340 -0.909822 0.554533
H 2.211771 1.846296 -1.059054
H 4.739584 1.979466 -1.161712
H 5.018028 -1.599154 0.974800
H 2.512460 -1.754834 1.051919
C -1.921273 -0.026375 0.014145
C -4.147017 -0.322803 -0.657086
C -4.100961 0.640625 0.540429
H -4.713522 0.081325 -1.521340
H -4.797117 0.358852 1.357068
C -2.221057 1.289596 2.103750
H -2.824566 1.051333 3.004725
H -1.162657 1.014085 2.275191
H -2.266213 2.383964 1.909259
C -2.299406 -1.246252 -2.125035
H -2.744783 -0.835363 -3.055745
H -1.195466 -1.178740 -2.186955
H -2.596368 -2.315813 -2.032949
N -2.727782 -0.477830 -0.979802
N -2.705033 0.534523 0.969185
H -4.328764 1.691719 0.244992
H -4.592849 -1.310508 -0.391740
C 0.061439 -1.921954 0.430638
O -0.016434 -3.065153 0.681800
C -0.050087 1.911141 -0.389825
C -0.185295 3.119793 -0.637828
H -0.284176 4.175092 -0.855045
