61

Ir -1.045564 -0.032491 0.071073
P 1.306786 0.095132 0.012809
C 1.439154 -1.801083 -2.035423
C 2.062695 -1.362637 -0.846033
C 2.153734 0.110417 1.656918
C 1.505922 -0.498242 2.752197
C 2.131964 -0.538064 4.007630
C 3.401825 0.036210 4.182841
C 4.047486 0.650801 3.097083
C 3.428503 0.687886 1.837656
C 2.036548 1.551898 -0.846747
C 1.750468 2.828168 -0.313551
C 2.188369 3.983854 -0.973472
C 2.927206 3.878420 -2.163967
C 3.228444 2.612446 -2.689255
C 2.781550 1.450602 -2.037794
C 3.177710 -2.067733 -0.353159
C 3.662626 -3.193465 -1.041140
C 3.046459 -3.617160 -2.229428
C 1.935071 -2.915188 -2.727985
H 0.545801 -1.264815 -2.395710
H 0.502204 -0.928076 2.607179
H 1.619078 -1.014019 4.857760
H 3.887951 0.011105 5.170516
H 5.040060 1.108210 3.231219
H 3.933901 1.175570 0.989665
H 1.167214 2.915240 0.614672
H 1.931791 4.971878 -0.563115
H 3.265209 4.787167 -2.685448
H 3.812240 2.523885 -3.618631
H 3.013137 0.462344 -2.462538
H 3.665396 -1.743005 0.578315
H 4.530395 -3.742179 -0.643244
H 3.429996 -4.498452 -2.766599
H 1.444843 -3.244505 -3.657364
C -3.083262 -0.107430 0.120784
C -5.307592 -0.661145 -0.386453
C -5.291710 0.453866 0.673256
H -5.937292 -0.417335 -1.267226
H -5.911066 0.220105 1.564009
C -3.406546 1.445362 2.040345
H -3.924386 1.239025 3.001214
H -2.316284 1.300048 2.163763
H -3.590829 2.503788 1.751856
C -3.455163 -1.638963 -1.809109
H -3.985383 -1.405829 -2.757074
H -2.366966 -1.486825 -1.948189
H -3.644599 -2.706999 -1.553435
N -3.893088 -0.754805 -0.755934
N -3.870147 0.531908 1.019817
H -5.640002 1.431608 0.265643
H -5.665331 -1.634623 0.024932
C -0.872238 -1.850871 0.407810
N -0.723540 -3.029606 0.659366
C -0.351511 -4.291676 0.113183
H -0.814688 -4.462948 -0.884570
H -0.659344 -5.119533 0.784362
H 0.751620 -4.348745 -0.016392
N -1.238328 1.949143 -0.383394
C -1.361305 3.101876 -0.713142
O -1.470090 4.259670 -1.020953
