30

Ir -0.060085 0.112720 -0.030037
As -2.495897 -0.073283 0.032978
C -3.569931 1.564586 0.042711
C -3.148483 -1.048725 1.595928
C -3.259919 -1.105496 -1.440921
H -3.259744 2.189249 0.901826
H -4.648257 1.324725 0.118228
H -3.375563 2.125021 -0.891576
H -2.860353 -0.499026 2.511602
H -2.649455 -2.036629 1.593500
H -4.248627 -1.167705 1.550071
H -3.044754 -0.589158 -2.395327
H -4.352921 -1.224691 -1.308217
H -2.756659 -2.091351 -1.440711
P 2.195611 -0.011439 -0.008050
C 5.322494 -0.244204 0.063571
C 4.559745 -1.425514 -0.006463
C 3.161239 -1.456148 -0.044162
C 3.363077 1.274007 0.078153
C 4.743289 1.037299 0.104447
H 6.419686 -0.326604 0.089409
H 5.095750 -2.389355 -0.032603
H 2.615254 -2.411722 -0.096005
H 2.977479 2.304825 0.119746
H 5.416065 1.909762 0.162609
C -0.069883 2.006817 -0.068690
N -0.092821 3.218437 -0.014385
H -0.088997 3.991370 -0.677137
C -0.167125 -1.932390 -0.047648
N -0.305598 -3.106948 -0.060137
