34

Ir -0.376419 0.026830 -0.003124
N -2.614152 -0.181560 0.111015
C -3.352662 0.954089 -0.476117
C -2.956458 -1.436074 -0.599479
C -2.946772 -0.319743 1.548645
H -2.708671 -1.326070 -1.672125
H -4.042334 -1.667606 -0.491392
H -2.341209 -2.247074 -0.168281
H -2.692024 0.620115 2.073639
H -2.332648 -1.140742 1.962348
H -4.032865 -0.536866 1.682194
H -3.080791 1.062545 -1.542590
H -3.076991 1.887642 0.048674
H -4.453629 0.796917 -0.391844
C 1.595517 -0.066365 0.008910
C 3.730883 -1.029576 -0.119907
C 3.871996 0.456194 0.241234
H 3.969344 -1.698328 0.741513
H 4.278806 1.059349 -0.605797
C 2.170752 2.141694 1.043983
H 2.303340 2.942664 0.281838
H 1.116319 2.142636 1.377113
H 2.826596 2.366625 1.911159
C 1.762166 -2.364005 -0.966509
H 1.782045 -3.165134 -0.196205
H 0.708024 -2.186477 -1.247073
H 2.340085 -2.697088 -1.854883
N 2.312983 -1.126065 -0.462055
N 2.487049 0.832918 0.521102
H 4.522533 0.632119 1.122737
H 4.371918 -1.335583 -0.972428
C -0.357690 1.650622 -0.803256
O -0.347726 2.717172 -1.311247
F -0.455481 -1.767887 0.912938
