42

Ir 0.447447 0.017492 -0.036790
P -1.807302 -0.033526 0.017064
C -2.532767 0.941732 1.427179
C -2.639881 -1.686609 0.207699
C -2.622221 -2.580661 -1.034028
C -2.696726 0.666571 -1.466319
C -2.334997 2.100584 -1.853065
C -2.059238 0.457694 2.799883
H -2.215479 1.992731 1.263409
H -3.640768 0.909043 1.336296
H -2.102742 -2.183877 1.040612
H -3.680825 -1.486047 0.544660
H -2.459645 -0.022535 -2.303013
H -3.786364 0.565036 -1.264245
H -1.586833 -2.723629 -1.400323
H -3.029035 -3.583199 -0.788590
H -3.240105 -2.168076 -1.857234
H -2.533668 2.819462 -1.032313
H -1.260539 2.175482 -2.112987
H -2.925808 2.427930 -2.733173
H -2.391120 -0.579263 3.011281
H -0.951353 0.470408 2.850904
H -2.455286 1.107169 3.607194
N 2.730695 -0.003508 -0.098293
C 3.304964 1.349366 -0.263981
C 3.224208 -0.585695 1.172560
C 3.161064 -0.847591 -1.238924
H 2.885320 0.043508 2.016692
H 4.339132 -0.634877 1.170995
H 2.801027 -1.599422 1.294028
H 2.767324 -0.417039 -2.178803
H 2.745769 -1.864014 -1.115410
H 4.274840 -0.892238 -1.289845
H 2.996172 1.996147 0.577043
H 2.933413 1.796727 -1.204296
H 4.418504 1.297515 -0.298072
C 0.370241 1.890306 0.075494
N 0.308457 3.078346 0.377587
H 0.256733 3.886905 -0.246441
C 0.560053 -2.020786 0.118349
C 0.675633 -3.248723 0.275667
H 0.761407 -4.318811 0.410314
