51

Ir 1.007094 -0.158097 -0.165163
P -1.356734 -0.052966 0.033512
C -1.479993 -2.387750 1.575695
C -2.108660 -1.658587 0.542672
C -2.201323 0.407798 -1.533002
C -1.536875 0.164956 -2.752036
C -2.167561 0.470199 -3.966841
C -3.457214 1.025910 -3.971499
C -4.117998 1.279134 -2.757841
C -3.493766 0.973706 -1.538898
C -2.012800 1.157858 1.268731
C -1.877603 2.542101 1.016792
C -2.366947 3.472371 1.943618
C -2.988119 3.040974 3.127213
C -3.123104 1.667884 3.380277
C -2.640454 0.727639 2.455978
C -3.282027 -2.165709 -0.049555
C -3.818820 -3.386762 0.389365
C -3.196888 -4.103330 1.423682
C -2.027173 -3.600708 2.017500
H -0.550958 -2.001187 2.025184
H -0.514583 -0.246121 -2.733216
H -1.641349 0.284970 -4.915534
H -3.947071 1.273124 -4.925961
H -5.125042 1.723775 -2.758695
H -4.007883 1.185009 -0.588598
H -1.385916 2.898779 0.098896
H -2.251594 4.547401 1.737909
H -3.365894 3.776935 3.853538
H -3.611149 1.318963 4.303273
H -2.762337 -0.345449 2.662476
H -3.774618 -1.611402 -0.862113
H -4.730446 -3.780883 -0.085376
H -3.620437 -5.060809 1.763699
H -1.529799 -4.161365 2.823548
P 3.288362 -0.081331 -0.040117
C 6.399403 0.013657 0.288543
C 5.656409 1.175939 0.569424
C 4.263699 1.264485 0.463772
C 4.427833 -1.362425 -0.315289
C 5.805791 -1.190844 -0.130166
H 7.493279 0.047851 0.404435
H 6.203308 2.075768 0.898067
H 3.726850 2.193416 0.711968
H 4.032319 -2.335913 -0.645624
H 6.463169 -2.054725 -0.325686
C 1.033376 -2.009797 -0.368040
O 1.078876 -3.160072 -0.568335
N 0.967476 1.956630 -0.179782
O 0.481177 2.490377 -1.192594
O 1.373954 2.626095 0.779974
