74

Ir 0.005973 0.037371 -0.166857
P -2.329877 0.045016 0.003238
C -2.884507 -2.585439 0.832047
C -3.149965 -1.605853 -0.149879
C -3.235992 1.070010 -1.238808
C -2.694132 1.161859 -2.537992
C -3.374462 1.876038 -3.535540
C -4.588707 2.516727 -3.239899
C -5.123422 2.439985 -1.943399
C -4.452388 1.717570 -0.944507
C -2.951744 0.663461 1.635596
C -2.237810 1.690414 2.288540
C -2.705774 2.204857 3.507111
C -3.879338 1.698246 4.089201
C -4.592853 0.676393 3.442621
C -4.134435 0.160468 2.219835
C -3.989614 -1.928369 -1.234432
C -4.555546 -3.210390 -1.333747
C -4.294633 -4.177168 -0.350690
C -3.459084 -3.859909 0.733833
H -2.220507 -2.347952 1.676698
H -1.724477 0.683856 -2.747593
H -2.944132 1.945052 -4.546424
H -5.116369 3.086457 -4.020537
H -6.069401 2.950172 -1.704592
H -4.874360 1.664376 0.070457
H -1.320186 2.087401 1.823324
H -2.142521 3.007408 4.008065
H -4.238554 2.099109 5.049823
H -5.514488 0.274681 3.891673
H -4.699601 -0.641377 1.721144
H -4.206757 -1.173567 -2.004781
H -5.210639 -3.450187 -2.185565
H -4.742605 -5.179916 -0.428371
H -3.245234 -4.613379 1.507424
P 2.334002 -0.013783 -0.009987
C 2.122671 -1.112966 2.583539
C 2.981655 -0.483908 1.660012
C 3.297667 1.524168 -0.361698
C 3.254263 2.572652 0.585827
C 3.929863 3.776586 0.339643
C 4.646312 3.952669 -0.856112
C 4.684061 2.918572 -1.804042
C 4.013125 1.708751 -1.560791
C 3.080463 -1.249156 -1.172827
C 2.473616 -1.379186 -2.441438
C 2.991524 -2.279186 -3.384898
C 4.107281 -3.070874 -3.064740
C 4.703356 -2.956744 -1.798626
C 4.196108 -2.048011 -0.855635
C 4.323357 -0.230591 2.024116
C 4.798095 -0.615841 3.287003
C 3.939357 -1.252098 4.198930
C 2.603129 -1.496963 3.845258
H 1.071292 -1.281207 2.303336
H 2.687184 2.442321 1.520548
H 3.890189 4.585209 1.085444
H 5.173710 4.899377 -1.049397
H 5.242809 3.050103 -2.743440
H 4.051429 0.902571 -2.308412
H 1.576196 -0.778553 -2.665543
H 2.513501 -2.369783 -4.372609
H 4.508130 -3.784601 -3.801086
H 5.570261 -3.583484 -1.538030
H 4.665387 -1.973799 0.136407
H 4.997756 0.283123 1.321591
H 5.844568 -0.411938 3.561908
H 4.312299 -1.549522 5.191310
H 1.922480 -1.984885 4.559754
C 0.081231 -1.818457 -0.075458
N 0.180101 -3.035949 0.027223
H 0.224810 -3.705344 -0.747186
S -0.153514 2.387164 -0.596130
H 1.155179 2.769346 -0.596309
