28

Ir -0.000045 -0.175419 0.000039
N 2.068663 -0.098570 -0.021412
C 4.879900 0.008164 -0.011498
C 4.193746 -0.792050 -0.937916
C 2.797742 -0.819201 -0.916489
C 2.730475 0.678736 0.877220
C 4.126796 0.755844 0.903940
H 5.979565 0.047931 -0.005882
H 4.729705 -1.397599 -1.682756
H 2.220371 -1.428148 -1.626101
H 2.088883 1.273168 1.546277
H 4.608723 1.404427 1.649528
N -2.068693 -0.098359 0.021297
C -4.879943 0.007550 0.011239
C -4.127021 0.755383 -0.904190
C -2.730654 0.678671 -0.877402
C -2.797605 -0.819153 0.916424
C -4.193599 -0.792404 0.937776
H -5.979620 0.046953 0.005540
H -4.609072 1.403758 -1.649879
H -2.089211 1.273293 -1.546430
H -2.220065 -1.427865 1.626100
H -4.729438 -1.398035 1.682635
C 0.000334 -2.023757 0.000112
O 0.000940 -3.195573 0.000068
N -0.000221 1.954958 -0.000013
O -0.465518 2.571598 -0.975951
O 0.465122 2.571032 0.976332
