31

Ir -0.220475 -0.080491 0.008185
As 2.142211 -0.152641 0.032086
C 3.116922 1.550358 -0.037617
C 3.000795 -1.170215 -1.409872
C 2.916144 -1.011258 1.615302
H 2.880651 2.055326 -0.993914
H 4.209278 1.385684 0.040595
H 2.767990 2.191308 0.794322
H 2.753597 -0.698320 -2.379495
H 2.583851 -2.195354 -1.388544
H 4.099186 -1.200559 -1.268936
H 2.619831 -0.437651 2.513857
H 4.020222 -1.069260 1.542318
H 2.470587 -2.023108 1.669231
N -2.327309 -0.194480 0.043308
C -4.504936 0.254426 0.407839
C -3.215031 0.700513 0.616683
N -4.379242 -0.923731 -0.305239
C -3.055993 -1.166438 -0.514612
H -5.143597 -1.513094 -0.634747
H -5.475838 0.663634 0.702643
H -2.858838 1.596776 1.133757
H -2.625905 -2.040464 -1.021063
C -0.240507 1.771763 0.070785
N -0.231094 2.983230 0.201063
C -0.318679 4.217844 -0.503943
H 0.683268 4.694299 -0.584244
H -0.972261 4.934548 0.037044
H -0.721160 4.089652 -1.533858
S -0.106108 -2.521736 -0.141713
H -0.938280 -2.787763 0.908046
