39

Ir -0.245288 -0.184840 -0.040778
P 2.025322 -0.075273 0.036651
C 2.757517 -1.077654 1.420652
C 2.752844 1.615662 0.304611
C 2.765314 2.524243 -0.928678
C 2.960868 -0.682330 -1.455608
C 2.630697 -2.105449 -1.907080
C 2.250968 -0.660149 2.803357
H 2.475295 -2.131076 1.212168
H 3.865070 -1.008619 1.347327
H 2.143197 2.067735 1.112867
H 3.779743 1.471596 0.706174
H 2.725005 0.037735 -2.266013
H 4.044315 -0.569666 -1.228530
H 1.774237 2.545286 -1.422412
H 3.010595 3.565307 -0.637787
H 3.518093 2.199977 -1.675135
H 2.825953 -2.854329 -1.112807
H 1.562959 -2.186534 -2.191908
H 3.243100 -2.386917 -2.788006
H 2.548352 0.377630 3.057955
H 1.143654 -0.710995 2.840545
H 2.658179 -1.326806 3.590611
N -2.375954 -0.238059 -0.044855
C -4.671038 0.349862 -0.193981
O -4.471056 -1.066924 0.107686
C -3.148108 -1.260426 0.134582
C -3.246538 0.947678 -0.204263
H -3.049233 1.651455 0.627902
H -2.986685 1.476124 -1.141124
H -5.333247 0.770737 0.587433
H -5.187196 0.411680 -1.173719
H -2.795307 -2.287258 0.312589
C -0.148555 -2.015612 -0.002637
N -0.131307 -3.236723 0.167426
H -0.029850 -3.931162 -0.579225
N -0.436761 1.848913 -0.023914
C -0.449014 3.050806 0.088321
O -0.472753 4.247076 0.187936
