35

Ir 0.103940 0.095458 -0.053675
P -2.173740 -0.035061 0.008217
C -5.313867 -0.229119 0.131328
C -4.726379 1.021212 -0.135503
C -3.344647 1.234668 -0.215080
C -3.155997 -1.437009 0.317345
C -4.554180 -1.394883 0.346944
H -6.411577 -0.298084 0.175238
H -5.394222 1.886224 -0.289181
H -2.953746 2.243774 -0.421412
H -2.611112 -2.377486 0.496601
H -5.094669 -2.334844 0.552422
C 2.154068 0.028193 -0.005559
C 4.335382 -0.680788 -0.462323
C 4.364842 0.305751 0.717822
H 4.546481 -1.727938 -0.142354
H 4.842877 1.277437 0.450221
C 2.488237 1.309346 2.100097
H 2.834545 2.362963 2.001432
H 1.380410 1.289289 2.106992
H 2.869387 0.899381 3.059405
C 2.472822 -1.369394 -2.033096
H 2.512605 -2.455202 -1.794675
H 1.416067 -1.099025 -2.223575
H 3.084649 -1.169266 -2.937890
N 2.948218 -0.572106 -0.923663
N 2.938645 0.502124 0.990001
H 4.892248 -0.094201 1.608526
H 5.051919 -0.421789 -1.269057
C 0.065076 1.921521 -0.554686
N 0.037550 3.117801 -0.789103
H 0.019455 3.635223 -1.668920
C 0.205315 -1.890128 0.447626
C 0.304087 -3.092144 0.739026
H 0.377966 -4.138883 1.001715
