23

Ir -0.000008 0.038846 0.024124
N -2.042799 -0.101552 0.003467
C -4.259116 0.297702 -0.009768
C -3.012837 0.885846 0.076799
N -4.023964 -1.058259 -0.135989
C -2.680170 -1.273645 -0.126642
H -4.731916 -1.785565 -0.231286
H -5.266664 0.723260 0.008858
H -2.743820 1.941220 0.181487
H -2.138889 -2.226788 -0.201940
N 2.042827 -0.101569 0.003841
C 4.259140 0.297682 -0.009525
C 3.012861 0.885797 0.077338
N 4.023946 -1.058189 -0.136710
C 2.680167 -1.273625 -0.126829
H 4.731945 -1.785571 -0.231081
H 5.266688 0.723260 0.008610
H 2.743858 1.941115 0.182644
H 2.138833 -2.226720 -0.202421
C 0.000011 1.857034 -0.063341
O -0.000016 3.039443 -0.077429
O 0.000025 -2.026596 0.137529
H 0.000132 -2.221914 1.096351
