33

Ir -0.254063 0.112622 -0.020062
P -2.546309 -0.089788 0.009947
C -3.180434 -0.996685 1.483708
C -3.238147 -1.058166 -1.397416
C -3.553716 1.455110 -0.003228
H -2.666923 -1.977423 1.516840
H -4.279715 -1.137510 1.433742
H -2.914479 -0.431746 2.397882
H -2.726995 -2.040662 -1.407776
H -3.007393 -0.535059 -2.345471
H -4.334802 -1.193498 -1.298966
H -3.257148 2.087289 0.856057
H -4.638581 1.232009 0.051232
H -3.338207 2.017905 -0.932262
As 2.172642 -0.035423 0.005677
C 2.956322 -1.063816 -1.466426
C 2.895190 -0.977327 1.564138
C 3.241128 1.611050 -0.019421
H 2.455189 -2.050636 -1.473987
H 4.049789 -1.181029 -1.333641
H 2.741855 -0.545958 -2.420452
H 2.394099 -1.963194 1.607956
H 2.642672 -0.405610 2.477160
H 3.993045 -1.100311 1.482120
H 3.037840 2.151804 -0.963602
H 4.322785 1.386033 0.057696
H 2.925086 2.251298 0.826168
C -0.271416 1.996788 -0.015898
N -0.275677 3.213840 0.097180
H -0.280256 3.948532 -0.611900
C -0.198583 -1.937768 -0.024601
C -0.152536 -3.179871 -0.017238
H -0.114629 -4.261075 -0.012529
