31

Ir 0.046041 -0.152918 -0.008588
P 2.276448 -0.456367 -0.016690
C 2.840602 -1.421457 -1.483149
C 2.807752 -1.520883 1.389337
C 3.404485 0.998081 0.030505
H 2.213002 -2.333754 -1.515828
H 3.913597 -1.695769 -1.417263
H 2.653391 -0.834098 -2.402507
H 2.111225 -2.382951 1.381849
H 2.672143 -0.968958 2.339272
H 3.859172 -1.859550 1.290831
H 3.178684 1.653744 -0.832988
H 4.468431 0.688086 -0.000982
H 3.211352 1.571124 0.958259
N -2.056884 -0.233422 0.004217
C -4.388915 0.165182 -0.111497
O -4.067933 -1.245062 0.089187
C -2.731369 -1.332105 0.115046
C -3.014965 0.878764 -0.109605
H -2.874696 1.569144 0.747170
H -2.808906 1.453412 -1.034375
H -5.062308 0.479636 0.710142
H -4.933653 0.252026 -1.073551
H -2.247674 -2.315465 0.226743
C 0.161017 1.663412 -0.175543
N 0.231600 2.869008 -0.371705
C 0.377697 4.086404 0.361002
H -0.349849 4.848148 0.007545
H 1.390681 4.519269 0.204678
H 0.230878 3.949384 1.456465
F -0.081635 -2.174023 0.180947
