27

Ir 0.366545 -0.189186 -0.025375
N 2.494615 -0.099958 0.020239
C 4.675779 -0.627577 0.179214
C 3.393816 -1.137724 0.196720
N 4.530573 0.734405 -0.011473
C 3.207262 1.023254 -0.103599
H 5.285450 1.418433 -0.071267
H 5.653236 -1.106635 0.287427
H 3.053793 -2.169810 0.326852
H 2.766962 2.017233 -0.240618
P -1.854890 -0.191813 -0.001789
C -4.991124 -0.221646 0.068314
C -4.304605 -1.448194 0.123610
C -2.910136 -1.568716 0.099951
C -2.935244 1.170138 -0.054083
C -4.326734 1.015938 -0.014436
H -6.091206 -0.229704 0.093612
H -4.899296 -2.374892 0.193178
H -2.436914 -2.561187 0.156782
H -2.502370 2.180403 -0.115167
H -4.939584 1.932511 -0.050538
C 0.384120 -2.029086 -0.106635
N 0.413564 -3.254569 -0.073610
H 0.398220 -3.890199 -0.875888
N 0.417289 1.867503 0.006299
C -0.081911 2.970688 0.019511
O -0.543562 4.076784 0.029348
