49

Ir 0.039830 0.031117 -0.009483
P -2.274680 -0.365303 -0.006615
C -3.096938 0.190170 1.568611
C -2.809545 -2.141320 -0.149527
C -2.627250 -2.755354 -1.540148
C -3.309924 0.473245 -1.311726
C -3.129597 1.989904 -1.397117
C -2.496750 -0.456675 2.819407
H -2.956281 1.291234 1.606229
H -4.189459 -0.002419 1.486931
H -2.183379 -2.685988 0.586850
H -3.866305 -2.209245 0.191136
H -3.014278 0.002995 -2.272468
H -4.373637 0.200446 -1.132443
H -1.582868 -2.628268 -1.886518
H -2.844324 -3.842815 -1.513129
H -3.308470 -2.303469 -2.289639
H -3.414599 2.498393 -0.453043
H -2.072148 2.245833 -1.608777
H -3.757333 2.416921 -2.205966
H -2.649160 -1.555306 2.830784
H -1.404036 -0.269059 2.861168
H -2.958744 -0.046150 3.740658
C 2.076260 0.262819 0.018276
C 4.334828 -0.148398 0.501001
C 4.244161 0.964387 -0.556452
H 4.967352 0.124184 1.371099
H 4.862097 0.763206 -1.456073
C 2.285558 1.813991 -1.918418
H 2.797904 1.618251 -2.884547
H 1.205358 1.589514 -2.021132
H 2.413505 2.892858 -1.667005
C 2.570337 -1.252628 1.936367
H 3.107329 -1.003318 2.876204
H 1.478397 -1.179555 2.100273
H 2.818425 -2.297245 1.644632
N 2.932687 -0.316045 0.894792
N 2.815916 0.961041 -0.882466
H 4.547455 1.960317 -0.154645
H 4.728106 -1.103094 0.080530
C -0.238334 1.806583 0.433610
N -0.398897 2.948717 0.823915
C -0.575174 4.296094 0.399464
H -0.328847 5.003933 1.217818
H -1.631196 4.486467 0.103714
H 0.068880 4.545497 -0.474448
N 0.419336 -1.950242 -0.447498
C 1.112858 -2.938870 -0.500841
O 1.770916 -3.944817 -0.548129
