34

Ir 0.170780 -0.135640 0.038743
C -1.814643 -0.161336 0.056204
C -3.995080 0.139893 0.675458
C -3.991157 -0.617067 -0.466063
H -4.823556 0.504097 1.290460
H -4.816238 -1.047724 -1.041460
C -2.213103 -1.552934 -1.982722
H -1.208317 -1.183188 -2.262905
H -2.116934 -2.625903 -1.723896
H -2.924921 -1.417996 -2.820681
C -2.220381 1.177009 2.128816
H -1.142474 0.962910 2.268269
H -2.350354 2.265358 1.955017
H -2.787768 0.876523 3.031585
N -2.667178 0.406161 0.981543
N -2.663420 -0.784809 -0.832692
N 2.311012 -0.233217 0.068576
C 4.425475 -1.014892 0.065921
C 3.094051 -1.374249 0.003749
N 4.437527 0.364355 0.169542
C 3.147538 0.802876 0.169755
H 5.264129 0.957178 0.239547
H 5.343714 -1.609421 0.047482
H 2.619653 -2.359654 -0.067989
H 2.847341 1.853426 0.240984
C 0.191816 1.741927 -0.190968
N 0.201922 2.955590 -0.289090
C 0.088397 4.058920 -1.181491
H -0.884327 4.579231 -1.041301
H 0.159230 3.746944 -2.247828
H 0.883913 4.809447 -0.986299
C 0.114728 -2.175598 0.225054
C 0.074058 -3.413637 0.330919
H 0.037594 -4.489007 0.442850
