37

Ir 0.106979 -0.051700 -0.004327
P -2.166468 -0.211910 0.044651
C -5.301215 -0.498828 0.134273
C -4.746815 0.786403 -0.005495
C -3.370747 1.042762 -0.057013
C -3.112632 -1.664133 0.207387
C -4.511142 -1.660274 0.235406
H -6.396743 -0.600475 0.166041
H -5.437344 1.644201 -0.078170
H -3.010234 2.077939 -0.167008
H -2.546029 -2.605655 0.290598
H -5.026241 -2.630146 0.343073
C 2.156924 -0.157995 0.016330
C 4.309773 -0.899697 -0.516682
C 4.378641 -0.034663 0.753534
H 4.477532 -1.980387 -0.300569
H 4.894649 0.939174 0.580025
C 2.539262 0.877446 2.246014
H 2.921004 1.923848 2.268973
H 1.431028 0.889029 2.257699
H 2.907949 0.349575 3.151121
C 2.419569 -1.373710 -2.133020
H 2.377637 -2.473246 -1.971389
H 1.388421 -1.016821 -2.320949
H 3.062639 -1.150953 -3.009898
N 2.927629 -0.691473 -0.960875
N 2.961165 0.188102 1.049787
H 4.890153 -0.540144 1.598648
H 5.036042 -0.592419 -1.297154
C 0.072591 1.854367 -0.244375
N 0.048811 3.041125 -0.389424
C -0.020163 4.407138 -0.711107
H 0.938441 4.919015 -0.479255
H -0.821846 4.912903 -0.130712
H -0.234312 4.556148 -1.792390
C 0.188615 -2.081214 0.196531
N 0.261104 -3.258852 0.275373
