27

Ir 0.003258 0.033751 0.016860
N -2.042625 0.029901 -0.041042
C -4.321131 -0.632892 0.102787
O -4.169649 0.766230 -0.282124
C -2.852484 1.014607 -0.291865
C -2.879958 -1.179858 0.154798
H -2.639290 -1.907939 -0.644115
H -2.613480 -1.660477 1.114642
H -4.964118 -1.125259 -0.652814
H -4.839912 -0.655808 1.083571
H -2.537869 2.044601 -0.509074
N 2.046094 -0.055159 0.018525
C 4.339133 0.473162 -0.299823
O 4.138443 -0.896581 0.153149
C 2.813494 -1.078750 0.249142
C 2.930322 1.100058 -0.258964
H 2.628982 1.578349 -1.210221
H 2.801382 1.851625 0.546351
H 4.771211 0.430054 -1.321143
H 5.070631 0.954806 0.377948
H 2.440173 -2.082277 0.498951
C 0.007295 1.903197 0.178741
N -0.027901 3.129892 0.224847
H -0.061172 3.725420 1.056915
C -0.015904 -2.020288 -0.054142
C -0.001588 -3.262241 -0.094939
H -0.001805 -4.343557 -0.138122
