51

Ir -1.246038 -0.083303 0.010048
P 1.019591 -0.105272 0.006358
C 1.717585 2.504945 0.792400
C 1.823589 1.546558 -0.239328
C 1.768614 -1.133911 -1.338527
C 1.025834 -1.304806 -2.524976
C 1.568432 -2.026903 -3.598493
C 2.849710 -2.592300 -3.492478
C 3.587873 -2.433871 -2.308054
C 3.051631 -1.707022 -1.233631
C 1.861452 -0.711168 1.548420
C 1.222991 -1.691335 2.336977
C 1.852746 -2.185683 3.489535
C 3.117419 -1.708762 3.870901
C 3.757616 -0.733843 3.089453
C 3.134859 -0.236542 1.933405
C 2.474342 1.896724 -1.437114
C 3.012747 3.184757 -1.600366
C 2.913496 4.130015 -0.568424
C 2.266089 3.784970 0.631382
H 1.203977 2.240224 1.730394
H 0.012654 -0.874521 -2.581534
H 0.980519 -2.158020 -4.520086
H 3.271809 -3.165864 -4.332399
H 4.588374 -2.884373 -2.215953
H 3.632645 -1.595438 -0.305769
H 0.237242 -2.072767 2.025981
H 1.345550 -2.951506 4.096803
H 3.605045 -2.095759 4.779263
H 4.749317 -0.353686 3.380375
H 3.643846 0.531929 1.331955
H 2.561203 1.159102 -2.249029
H 3.518184 3.446932 -2.542723
H 3.342639 5.135895 -0.695873
H 2.187473 4.519225 1.448494
N -3.380183 -0.190209 0.025948
C -5.567348 0.320413 -0.146088
C -4.284555 0.803405 -0.308576
N -5.418594 -0.981941 0.294786
C -4.091568 -1.260346 0.390303
H -6.171549 -1.634600 0.512833
H -6.546969 0.780169 -0.306622
H -3.946860 1.789794 -0.640795
H -3.646078 -2.220922 0.678761
C -1.311933 1.753893 -0.077784
N -1.417933 2.949825 -0.248858
C -1.333768 4.260141 0.290826
H -2.163151 4.894636 -0.086502
H -0.379738 4.740911 -0.015680
H -1.374975 4.258253 1.403303
Cl -1.234719 -2.511524 0.043179
