37

Ir -0.366191 0.053467 -0.038173
N -2.645285 -0.077895 0.032891
C -3.046415 -0.262813 1.446945
C -3.301069 1.134285 -0.500240
C -3.073797 -1.249843 -0.765140
H -2.981494 2.019393 0.079574
H -4.411383 1.038088 -0.444654
H -3.002681 1.284129 -1.554339
H -2.585662 -2.157326 -0.364705
H -2.752221 -1.111249 -1.814635
H -4.183674 -1.364968 -0.730180
H -2.706924 0.608745 2.037520
H -2.557225 -1.170592 1.845500
H -4.155610 -0.358393 1.531096
C 1.601756 0.013026 -0.033714
C 3.787849 -0.751851 -0.403612
C 3.841612 0.517820 0.459821
H 4.029591 -1.669448 0.184573
H 4.244724 1.394481 -0.102751
C 2.021536 1.766140 1.693427
H 2.230222 2.779418 1.280600
H 0.930680 1.665794 1.854227
H 2.551678 1.661051 2.663926
C 1.901076 -1.805360 -1.710494
H 1.946711 -2.810302 -1.234838
H 0.840927 -1.582887 -1.940291
H 2.498359 -1.815713 -2.647211
N 2.388749 -0.774213 -0.823920
N 2.432246 0.722041 0.785206
H 4.454865 0.396535 1.376865
H 4.473865 -0.718171 -1.275423
C -0.352323 1.819018 -0.680844
N -0.297163 3.013893 -0.952961
H -0.273513 3.449957 -1.877761
C -0.319707 -1.842386 0.758893
C -0.277434 -2.982987 1.251064
H -0.242845 -3.972608 1.687098
