26

Ir -0.014426 0.053503 -0.001707
N -2.063655 -0.018186 0.008934
C -2.740460 -1.152247 -0.335853
C -4.139637 -1.188443 -0.330987
N -4.906879 -0.139177 0.004611
C -4.234314 0.970943 0.348060
C -2.838340 1.049460 0.357550
H -2.134348 -2.030373 -0.595628
H -4.650905 -2.123673 -0.617093
H -4.824857 1.857969 0.635986
H -2.319474 1.972550 0.647194
N 2.062694 -0.006115 -0.002121
C 4.876665 -0.129899 0.006252
C 4.113708 -1.115165 -0.635510
C 2.719034 -1.026230 -0.619336
C 2.804071 0.947440 0.623727
C 4.200386 0.917846 0.647998
H 5.975874 -0.178361 0.009249
H 4.586433 -1.963948 -1.149811
H 2.085060 -1.789262 -1.090244
H 2.239774 1.750272 1.117608
H 4.743379 1.717668 1.171438
C 0.006691 1.892810 -0.384397
O 0.051708 3.039923 -0.609666
C 0.032399 -1.950079 0.414253
N 0.078556 -3.115172 0.607078
