28

Ir 0.014644 0.112764 -0.040984
N -2.028365 0.123413 -0.034045
C -4.285358 -0.487065 0.316742
O -4.152803 0.646437 -0.596372
C -2.834971 0.825674 -0.768406
C -2.867525 -0.691190 0.878867
H -2.511907 -1.739826 0.855589
H -2.735455 -0.304345 1.910683
H -4.642189 -1.353205 -0.279687
H -5.049637 -0.228389 1.074032
H -2.518770 1.574047 -1.507960
N 2.057682 0.015685 -0.064889
C 4.355247 0.492361 0.297498
O 4.148145 -0.768025 -0.402012
C 2.822497 -0.935583 -0.509356
C 2.941201 1.098984 0.421100
H 2.786488 1.997829 -0.210646
H 2.662711 1.363810 1.459241
H 5.059959 1.103463 -0.299659
H 4.822074 0.261091 1.277178
H 2.451695 -1.875378 -0.942810
C 0.017493 1.943679 -0.132718
N -0.047304 3.152002 -0.286230
C -0.048214 4.388679 0.425692
H -0.949667 4.985124 0.169671
H 0.832400 5.004227 0.140961
H -0.030207 4.244552 1.529128
Br -0.049833 -2.445545 0.088193
