35

Ir -0.202827 -0.114073 0.028994
N -2.348376 -0.215089 0.072343
C -4.537264 0.335601 0.115941
C -3.251254 0.835216 0.061277
N -4.395702 -1.038487 0.161564
C -3.068992 -1.339804 0.133309
H -5.150616 -1.722265 0.212954
H -5.513925 0.828341 0.127520
H -2.910836 1.874199 0.018307
H -2.643339 -2.350729 0.166668
C 1.778801 -0.173379 0.039611
C 4.018521 0.183748 0.662949
C 3.964519 -0.880088 -0.444090
H 4.448073 1.149533 0.300860
H 4.185742 -1.902520 -0.054725
C 2.093430 -1.612180 -1.973196
H 2.078971 -2.691410 -1.703450
H 1.055396 -1.304146 -2.203229
H 2.738099 -1.464088 -2.865584
C 2.190311 1.175320 2.099558
H 2.436341 2.248707 1.924854
H 1.092887 1.070113 2.207692
H 2.687863 0.850707 3.038539
N 2.605826 0.343169 0.997428
N 2.572371 -0.794415 -0.881056
H 4.665640 -0.678211 -1.280475
H 4.609943 -0.135338 1.546364
C -0.203223 1.767274 -0.225305
N -0.197089 2.969266 -0.344298
C -0.102823 4.179900 -1.070321
H 0.849414 4.705112 -0.839639
H -0.929495 4.870628 -0.798849
H -0.142951 4.007870 -2.169251
C -0.196228 -2.153635 0.237155
N -0.244788 -3.333119 0.325106
