28

Ir 0.207822 0.073470 -0.019035
N 2.402218 -0.000937 0.020979
C 3.026765 1.336572 -0.149331
C 2.844069 -0.561840 1.328183
C 2.889765 -0.877836 -1.079101
H 2.483714 0.094618 2.141549
H 3.956548 -0.624351 1.359748
H 2.394185 -1.564859 1.449442
H 2.542692 -0.472317 -2.047172
H 2.481468 -1.895955 -0.941794
H 4.002875 -0.921172 -1.067928
H 2.699749 2.007368 0.665177
H 2.715672 1.772100 -1.116048
H 4.136392 1.245873 -0.126190
N -1.822540 -0.006246 -0.051827
C -4.115640 0.421333 0.374956
O -3.910220 -0.776228 -0.429434
C -2.585078 -0.928738 -0.562248
C -2.708996 1.040890 0.506536
H -2.417123 1.257834 1.551732
H -2.578805 1.973534 -0.080087
H -4.548609 0.103850 1.346275
H -4.847151 1.065530 -0.150097
H -2.206852 -1.831068 -1.063552
C 0.163081 1.903914 -0.131984
O 0.086808 3.079062 -0.194200
S 0.200572 -2.361912 0.112489
H -0.580433 -2.455778 1.227764
