40

Ir 0.276399 -0.220320 0.019984
P -1.984284 -0.225405 0.023624
C -2.743279 0.848735 1.341086
C -2.810690 -1.867305 0.302236
C -2.570216 -2.907049 -0.796096
C -2.828927 0.388265 -1.521975
C -2.388599 1.776121 -1.990334
C -2.288757 0.486890 2.756719
H -2.427274 1.884498 1.095288
H -3.849636 0.803367 1.236346
H -2.396060 -2.236148 1.263116
H -3.893835 -1.665520 0.462079
H -2.600455 -0.366911 -2.302403
H -3.926294 0.346977 -1.342483
H -1.480546 -3.095244 -0.877466
H -3.083108 -3.858327 -0.542713
H -2.962843 -2.577589 -1.780093
H -2.597833 2.558809 -1.232210
H -1.298923 1.789769 -2.192404
H -2.919073 2.065200 -2.920916
H -2.625817 -0.527466 3.053490
H -1.181345 0.503960 2.818452
H -2.694279 1.203737 3.500163
N 2.404084 -0.331072 0.020300
C 4.479381 -1.115337 -0.353395
C 3.133013 -1.389105 -0.495108
N 4.548371 0.125217 0.254824
C 3.278359 0.570999 0.467631
H 5.400976 0.625417 0.507040
H 5.373544 -1.680117 -0.633738
H 2.602920 -2.250132 -0.918324
H 3.017476 1.532109 0.923911
C 0.284151 1.618024 0.110509
N 0.326305 2.830486 0.306390
C 0.445533 4.014875 -0.490354
H 1.036027 4.789602 0.042819
H -0.556492 4.456958 -0.688859
H 0.929852 3.824850 -1.475372
O 0.345080 -2.265717 -0.070259
H 0.962743 -2.579421 0.617098
