55

Ir -1.077874 -0.231512 0.076138
P 1.280273 -0.037521 0.025193
C 1.484002 -2.162407 -1.781609
C 2.142651 -1.486625 -0.732532
C 2.085945 0.146890 1.679258
C 1.460657 -0.435450 2.801474
C 2.060958 -0.352761 4.067023
C 3.283853 0.319390 4.226031
C 3.906582 0.909893 3.114182
C 3.312864 0.824897 1.844974
C 1.927038 1.401291 -0.926490
C 1.665201 2.697778 -0.431377
C 2.039068 3.825934 -1.173286
C 2.685235 3.672672 -2.411563
C 2.958026 2.386768 -2.902472
C 2.577195 1.252168 -2.166811
C 3.423596 -1.914846 -0.330343
C 4.037165 -3.001167 -0.973582
C 3.381996 -3.663537 -2.024488
C 2.104763 -3.241538 -2.428329
H 0.473219 -1.833025 -2.073528
H 0.491299 -0.941840 2.673067
H 1.564683 -0.810603 4.936549
H 3.750346 0.389536 5.220864
H 4.861744 1.444139 3.234593
H 3.800229 1.297117 0.978099
H 1.154701 2.823106 0.534758
H 1.806496 4.829903 -0.787952
H 2.973064 4.559670 -2.996608
H 3.467906 2.260748 -3.870106
H 2.785645 0.247310 -2.563685
H 3.942316 -1.403991 0.494767
H 5.034838 -3.334013 -0.648028
H 3.865878 -4.516091 -2.525662
H 1.583583 -3.761712 -3.246754
C -3.128916 -0.274210 0.096830
C -5.297163 -0.775069 -0.378541
C -5.298685 0.242742 0.538699
H -6.123263 -1.302169 -0.865243
H -6.126735 0.783657 1.006578
C -3.537015 1.571484 1.742254
H -4.155917 1.533261 2.659710
H -2.476054 1.388277 1.992069
H -3.621519 2.571458 1.272588
C -3.515120 -2.114813 -1.550303
H -2.507368 -1.838713 -1.913153
H -3.449870 -3.093956 -1.034001
H -4.216068 -2.190128 -2.403038
N -3.966922 -1.073973 -0.637719
N -3.970756 0.530240 0.819759
C -0.975453 -1.997953 0.560722
O -0.940803 -3.136456 0.855574
N -1.257167 1.716534 -0.480744
C -1.459360 2.857716 -0.811239
O -1.643389 4.004228 -1.120122
