39

Ir 0.232673 0.184752 -0.030699
P -2.038126 -0.035295 0.008455
C -2.860108 1.120444 1.210422
C -2.705145 -1.695339 0.517206
C -2.604290 -2.809891 -0.528942
C -2.931840 0.307846 -1.588141
C -2.614658 1.660930 -2.226793
C -2.354123 0.954564 2.645493
H -2.642420 2.145821 0.844684
H -3.959254 0.968292 1.137507
H -2.119383 -1.969976 1.418321
H -3.760393 -1.533711 0.828716
H -2.640627 -0.514637 -2.273722
H -4.020641 0.193927 -1.389720
H -1.566203 -2.957628 -0.885228
H -2.935899 -3.770999 -0.086483
H -3.248343 -2.615323 -1.410614
H -2.879990 2.509665 -1.563805
H -1.532803 1.738344 -2.455253
H -3.177971 1.789592 -3.173552
H -2.583431 -0.051153 3.052261
H -1.253416 1.085211 2.682792
H -2.820011 1.703590 3.317818
N 2.350690 0.245333 -0.018978
C 4.596860 -0.346621 -0.451847
O 4.467523 0.578648 0.677102
C 3.153637 0.761482 0.851785
C 3.182057 -0.399779 -1.060653
H 2.794818 -1.420477 -1.250056
H 3.081449 0.184701 -1.999169
H 4.932071 -1.321549 -0.040541
H 5.376747 0.050740 -1.128498
H 2.840433 1.349129 1.726912
C 0.068885 2.026585 -0.127617
N -0.027233 3.243106 -0.024444
H -0.042569 3.943147 -0.769528
N 0.508107 -1.913725 0.186557
O 0.952596 -2.562928 -0.787425
O 0.255539 -2.479156 1.261161
