29

Ir -0.009488 -0.157081 0.042674
N -2.039050 -0.275755 0.041047
C -2.632168 -1.475100 -0.238427
C -4.024264 -1.599928 -0.247216
N -4.865395 -0.582968 0.010366
C -4.270070 0.588079 0.290772
C -2.883009 0.760882 0.312872
H -1.932327 -2.304237 -0.425875
H -4.472071 -2.581931 -0.479114
H -4.922617 1.450337 0.514396
H -2.421219 1.729624 0.546120
N 2.049323 -0.277784 0.042715
C 4.851729 -0.581445 0.005298
C 4.005495 -1.635221 -0.370177
C 2.620692 -1.456306 -0.339558
C 2.870346 0.742993 0.414898
C 4.262070 0.626335 0.407376
H 5.945722 -0.698576 -0.012253
H 4.408524 -2.607385 -0.689235
H 1.896167 -2.248421 -0.585188
H 2.372881 1.673514 0.720634
H 4.871788 1.486624 0.719425
C -0.004755 1.671704 0.040709
N 0.007096 2.890020 0.113514
C 0.015365 4.072817 -0.686829
H 0.930222 4.671325 -0.488523
H -0.850818 4.720787 -0.433989
H -0.023688 3.847410 -1.775498
F -0.000488 -2.178586 0.012379
