34

Ir -0.248776 -0.423885 0.055701
P -2.560601 -0.043570 -0.013263
C -3.143618 0.627622 -1.627167
C -3.126606 1.229313 1.192872
C -3.685244 -1.468999 0.298801
H -2.544358 1.530101 -1.857214
H -4.221783 0.885998 -1.597174
H -2.960421 -0.122767 -2.420399
H -2.535911 2.150879 1.024021
H -2.924482 0.869436 2.220287
H -4.207874 1.447951 1.078686
H -3.483535 -2.260622 -0.448964
H -4.750354 -1.166853 0.240842
H -3.472308 -1.885549 1.302629
C 1.811896 -0.506882 0.064640
C 3.994144 -0.028757 0.489725
C 3.967541 -1.008363 -0.467811
H 4.834839 0.486057 0.964412
H 4.780218 -1.522729 -0.989491
C 2.156348 -2.283593 -1.662452
H 2.094272 -3.282762 -1.185213
H 1.145479 -1.988704 -2.000641
H 2.843725 -2.329890 -2.528243
C 2.273756 1.269027 1.778548
H 2.322459 2.285474 1.337649
H 1.229903 1.064550 2.078141
H 2.936801 1.208616 2.662928
N 2.674612 0.259402 0.805232
N 2.630516 -1.283370 -0.716365
C -0.425695 -2.208801 0.434265
O -0.544614 -3.353947 0.674446
N -0.068314 1.573378 -0.341274
C 0.218678 2.736460 -0.424605
S 0.620632 4.297944 -0.503870
