47

Ir 0.163313 -0.003335 0.004785
P -2.185433 -0.022412 -0.031829
C -3.010528 1.540516 0.551274
C -3.059090 -1.324500 0.993497
C -3.219712 -2.719140 0.377435
C -2.869290 -0.271921 -1.740336
C -2.426004 0.808078 -2.729691
C -2.732791 1.862460 2.021914
H -2.620602 2.349595 -0.101069
H -4.101204 1.453613 0.352641
H -2.479256 -1.387772 1.937662
H -4.055925 -0.902299 1.250199
H -2.464173 -1.259574 -2.046158
H -3.976768 -0.357473 -1.684893
H -2.248832 -3.191127 0.133293
H -3.741306 -3.382462 1.097733
H -3.831278 -2.694204 -0.546808
H -2.842462 1.805400 -2.478692
H -1.319819 0.895221 -2.729387
H -2.755676 0.560170 -3.759263
H -3.177786 1.106954 2.700855
H -1.641626 1.881555 2.221588
H -3.155674 2.849566 2.301261
C 2.208949 -0.170379 -0.021322
C 4.360942 -0.612867 0.573480
C 4.389730 -0.036438 -0.670305
H 5.171241 -0.982988 1.209092
H 5.228275 0.190373 -1.335638
C 2.639957 0.824400 -2.268062
H 1.534723 0.748830 -2.300380
H 2.936963 1.891826 -2.315042
H 3.079245 0.279438 -3.126653
C 2.542166 -1.216809 2.220651
H 2.339190 -0.389738 2.930094
H 1.607941 -1.784986 2.037321
H 3.310344 -1.888839 2.647645
N 3.027706 -0.689967 0.948856
N 3.070901 0.223236 -1.015698
C 0.235559 1.859227 0.133885
N 0.265815 3.069314 0.144239
C 0.252958 4.293504 0.861518
H -0.169741 4.168886 1.883536
H -0.353617 5.056181 0.329043
H 1.281054 4.704003 0.961946
N -0.000937 -2.112713 -0.139086
O 0.101344 -2.832331 0.876099
O -0.322379 -2.614294 -1.232691
