30

Ir 0.153102 0.049840 0.000016
P -2.086187 -0.159684 0.000006
C -2.663557 -1.150605 1.439797
C -2.663668 -1.149862 -1.440256
C -3.143893 1.342962 0.000381
H -2.044542 -2.069310 1.445643
H -3.739988 -1.406979 1.364464
H -2.470937 -0.588313 2.373529
H -2.044742 -2.068623 -1.446603
H -2.471055 -0.587122 -2.373721
H -3.740118 -1.406184 -1.365002
H -2.910074 1.949774 0.896522
H -4.219672 1.075477 0.000209
H -2.909911 1.950299 -0.895362
N 2.371648 -0.212639 -0.000018
C 3.125762 1.057816 -0.000029
C 2.698076 -1.003849 1.211301
C 2.698002 -1.003851 -1.211371
H 2.454225 -0.410114 2.112081
H 3.780781 -1.270953 1.223418
H 2.074918 -1.917157 1.200915
H 2.454087 -0.410109 -2.112127
H 2.074863 -1.917172 -1.200940
H 3.780711 -1.270936 -1.223559
H 2.859458 1.647211 0.896800
H 2.859426 1.647203 -0.896852
H 4.223700 0.863452 -0.000045
C 0.108766 1.860297 0.000016
O 0.057284 3.039370 0.000009
F 0.164011 -1.977426 0.000036
