36

Ir -0.098313 -0.435553 0.067946
As -2.485253 0.126261 -0.030888
C -3.822061 -1.273488 0.275756
C -3.057493 0.894799 -1.740162
C -3.037049 1.524690 1.226327
H -3.680587 -2.072209 -0.477332
H -4.849108 -0.866114 0.203041
H -3.659925 -1.707163 1.281116
H -2.941642 0.132449 -2.533728
H -2.387961 1.747162 -1.963965
H -4.110148 1.235829 -1.691741
H -2.901258 1.152876 2.259657
H -4.093804 1.813289 1.063046
H -2.373950 2.397146 1.070797
C 1.935220 -0.614318 0.087427
C 4.167483 -0.073373 0.536737
C 4.125679 -1.190961 -0.518164
H 4.489429 0.904215 0.109184
H 4.488915 -2.167959 -0.121076
C 2.204488 -2.142035 -1.867423
H 2.386616 -3.213189 -1.623103
H 1.115618 -1.974170 -1.974801
H 2.706294 -1.910803 -2.830758
C 2.368343 0.927107 2.004416
H 2.531357 1.984476 1.698552
H 1.290861 0.780148 2.207707
H 2.951466 0.720214 2.926282
N 2.764622 0.009230 0.956833
N 2.694457 -1.269777 -0.825592
H 4.716583 -0.955718 -1.427188
H 4.830377 -0.304993 1.395502
C -0.381574 -2.211586 0.433268
O -0.563321 -3.349598 0.664545
N 0.225990 1.546771 -0.328410
C 0.724260 2.637276 -0.409779
S 1.401354 4.100003 -0.493146
