25

Ir 0.007307 0.295119 0.056038
N -2.036543 0.303610 0.006810
C -4.300425 -0.350250 0.198304
O -4.145849 0.916684 -0.515190
C -2.826146 1.120755 -0.619776
C -2.896052 -0.649888 0.750904
H -2.538465 -1.681161 0.562585
H -2.789749 -0.440753 1.835632
H -4.646399 -1.104832 -0.539114
H -5.080658 -0.213563 0.970910
H -2.493194 1.983024 -1.213980
N 2.048406 0.202257 0.058315
C 4.341150 0.688814 -0.312868
O 4.139480 -0.586009 0.365297
C 2.819449 -0.722660 0.543901
C 2.913880 1.191975 -0.620514
H 2.668530 1.195622 -1.701721
H 2.703019 2.206094 -0.228237
H 4.958077 0.501108 -1.213229
H 4.905042 1.350510 0.376431
H 2.458876 -1.623766 1.059256
C 0.019457 2.108699 0.225758
N -0.011063 3.340658 0.215253
H -0.047107 3.929076 1.053801
Br -0.029804 -2.249179 -0.201002
