23

Ir 0.001559 0.058518 0.015769
N -2.056984 -0.007498 -0.005765
C -4.183878 -0.732663 0.151063
C -2.862001 -1.097061 0.300796
N -4.170040 0.590570 -0.247102
C -2.875179 1.000710 -0.335984
H -4.984139 1.169019 -0.451881
H -5.111500 -1.295305 0.290445
H -2.407499 -2.055102 0.573322
H -2.555662 2.009056 -0.617550
N 2.062511 0.041143 -0.007353
C 4.216409 0.681789 -0.200755
C 2.907512 1.114485 -0.255865
N 4.150147 -0.668212 0.084876
C 2.843302 -1.028128 0.198961
H 4.940915 -1.302911 0.190843
H 5.163771 1.210238 -0.340994
H 2.509872 2.114372 -0.453060
H 2.460039 -2.037742 0.388605
C -0.034830 1.862656 0.181258
N -0.085874 3.099431 0.196717
H -0.076912 3.637752 1.070518
Cl 0.033806 -2.362004 -0.132408
