35

Ir -0.228819 0.036697 0.009139
P -2.557031 -0.124614 0.052190
C -3.191101 -0.308781 1.772567
C -3.124933 -1.682342 -0.749189
C -3.602614 1.200517 -0.684551
H -2.603554 -1.129232 2.229708
H -4.273963 -0.548525 1.798594
H -2.995578 0.622311 2.338685
H -2.480386 -2.474360 -0.318589
H -2.937065 -1.626893 -1.838953
H -4.196325 -1.895914 -0.558711
H -3.344040 2.166491 -0.208270
H -4.684543 0.994942 -0.555974
H -3.367116 1.282027 -1.763818
C 1.818444 -0.106637 0.053393
C 3.975960 -1.001234 -0.251247
C 4.098284 0.458948 0.220373
H 4.365456 -1.730255 0.496816
H 4.520727 1.127844 -0.565463
C 2.391446 2.101538 1.088039
H 2.547073 2.936563 0.369441
H 1.328871 2.098408 1.392612
H 3.030113 2.276619 1.980586
C 1.982915 -2.416750 -0.892627
H 2.502701 -3.264066 -0.394607
H 0.912485 -2.461086 -0.614931
H 2.117596 -2.523843 -1.991970
N 2.529242 -1.165463 -0.410783
N 2.707632 0.818598 0.504343
H 4.731793 0.573393 1.126014
H 4.507460 -1.193964 -1.207697
C -0.200859 1.692428 -0.739924
N -0.212262 2.858239 -1.147259
H -0.228062 3.110920 -2.139995
F -0.392962 -1.833727 0.823874
