34

Ir -0.460209 -0.034875 0.009898
N -2.720420 -0.048193 -0.040022
C -3.178698 -0.266220 1.357323
C -3.264670 1.232790 -0.548093
C -3.230298 -1.143339 -0.907960
H -2.939392 2.064949 0.101336
H -4.378417 1.198312 -0.561694
H -2.892668 1.413797 -1.573699
H -2.943774 -2.119718 -0.482486
H -2.797369 -1.043839 -1.920619
H -4.341221 -1.088963 -0.971882
H -2.827153 0.569805 1.990283
H -2.735297 -1.211068 1.723823
H -4.292146 -0.318134 1.394166
P 1.750029 -0.132117 0.022396
C 4.886407 -0.249963 0.033884
C 4.164662 -1.413585 -0.293515
C 2.768533 -1.494111 -0.338267
C 2.868510 1.148474 0.387076
C 4.257175 0.965647 0.355793
H 5.985985 -0.293302 0.038461
H 4.734653 -2.326670 -0.536110
H 2.254420 -2.427207 -0.614520
H 2.449420 2.128758 0.661603
H 4.895069 1.831005 0.604388
C -0.360248 1.852230 -0.004748
N -0.261704 3.046672 0.025015
C -0.034985 4.403119 -0.282507
H 0.939216 4.533436 -0.801869
H -0.020493 5.024687 0.637824
H -0.833580 4.798096 -0.947049
N -0.550243 -2.149066 0.058906
O -0.006680 -2.836127 -0.820447
O -1.193739 -2.691738 0.982792
