34

Ir -0.025840 -0.261173 -0.053340
P 2.260382 -0.016020 0.010114
C 5.365523 0.415886 0.119956
C 4.875565 -0.868091 -0.180927
C 3.514043 -1.189061 -0.258342
C 3.124921 1.450809 0.354408
C 4.522558 1.514739 0.374287
H 6.454928 0.567711 0.158304
H 5.606940 -1.672727 -0.367129
H 3.203250 -2.218162 -0.499358
H 2.510385 2.340791 0.561126
H 4.991734 2.486711 0.603161
C -2.084572 -0.264041 -0.050271
C -4.270916 0.422504 -0.517836
C -4.302563 -0.620293 0.612574
H -4.517380 1.448073 -0.158810
H -4.756328 -1.586789 0.291909
C -2.440158 -1.651469 1.990956
H -2.742943 -2.710060 1.826917
H -1.336253 -1.593615 2.053549
H -2.878600 -1.303715 2.950026
C -2.407299 1.201542 -2.043307
H -2.519800 2.281552 -1.802458
H -1.336688 0.984952 -2.219172
H -2.988954 0.973598 -2.960994
N -2.867958 0.375044 -0.947128
N -2.876420 -0.805437 0.903247
H -4.850013 -0.272428 1.512542
H -4.954894 0.180973 -1.357023
C 0.076336 -2.052028 -0.462550
O 0.123644 -3.195293 -0.724049
N -0.202702 1.736949 0.389213
C -0.861861 2.748755 0.466324
O -1.478810 3.775587 0.538287
