29

Ir -0.010248 -0.109361 0.037935
N -2.047072 -0.164130 0.034362
C -2.724711 -1.175505 -0.581366
C -4.123683 -1.209953 -0.576778
N -4.886953 -0.276165 0.014831
C -4.209402 0.712139 0.622355
C -2.813208 0.784550 0.644795
H -2.109884 -1.959567 -1.044479
H -4.640953 -2.041520 -1.086108
H -4.797972 1.497888 1.127492
H -2.280662 1.602755 1.147804
N 2.053714 -0.154622 0.027754
C 4.868502 -0.270180 0.019080
C 4.106558 -1.185745 -0.720584
C 2.711447 -1.103565 -0.693966
C 2.793172 0.732310 0.747454
C 4.189896 0.703873 0.766686
H 5.967984 -0.315224 0.015076
H 4.582207 -1.973205 -1.322739
H 2.069712 -1.817569 -1.228121
H 2.223050 1.479329 1.316449
H 4.732335 1.445231 1.370929
C -0.007893 1.730148 -0.082546
N 0.000201 2.944666 -0.062536
C 0.007963 4.138035 -0.840378
H 0.906797 4.747598 -0.607778
H -0.877881 4.763653 -0.600905
H 0.001777 3.926520 -1.932190
Cl 0.022443 -2.501176 0.234954
