42

Ir 0.243883 -0.195372 -0.017481
N 2.321973 0.226154 -0.039143
C 2.792571 1.337679 -0.662747
C 4.162748 1.629836 -0.676418
N 5.084343 0.852725 -0.085419
C 4.607262 -0.239788 0.533174
C 3.246025 -0.565014 0.564810
H 2.043371 1.990447 -1.132416
H 4.518280 2.537681 -1.193945
H 5.336037 -0.899000 1.036442
H 2.874646 -1.467239 1.071104
P -2.035643 -0.450312 0.007064
C -2.697441 -2.142560 0.418740
C -2.916515 -0.042820 -1.580485
C -2.643709 1.350956 -2.148972
C -2.877187 0.633765 1.258096
C -2.344644 0.457487 2.681767
C -2.601530 -3.177553 -0.705727
H -2.122178 -2.474622 1.307465
H -3.752363 -2.014225 0.744250
H -2.597554 -0.821072 -2.304818
H -4.001882 -0.202188 -1.391662
H -2.730397 1.680904 0.920631
H -3.966697 0.419938 1.193855
H -1.566076 1.486224 -2.364511
H -3.207356 1.494580 -3.093208
H -2.939393 2.163482 -1.455592
H -2.503152 -0.571662 3.064850
H -1.256636 0.666938 2.717298
H -2.853541 1.156091 3.376236
H -3.299187 -2.951099 -1.536330
H -1.580053 -3.227489 -1.132239
H -2.859504 -4.188126 -0.328031
C 0.543895 -2.024315 0.095883
N 0.782152 -3.194252 0.300522
C 0.973439 -4.515699 -0.182076
H 0.053909 -5.121939 -0.032869
H 1.792547 -5.020754 0.370947
H 1.224322 -4.529761 -1.265891
N -0.078846 1.821821 -0.031609
C -0.558696 2.918951 0.082409
S -1.233511 4.376284 0.224206
