35

Ir -0.214600 0.120613 -0.055337
P -2.540068 -0.117787 0.078852
C -3.157974 -0.420413 1.788403
C -3.194412 -1.567393 -0.852324
C -3.587671 1.279816 -0.514109
H -2.634946 -1.313613 2.182844
H -4.254864 -0.584160 1.800034
H -2.901809 0.446800 2.427256
H -2.668558 -2.469740 -0.483067
H -2.965123 -1.442378 -1.928323
H -4.288993 -1.679568 -0.713222
H -3.340176 2.190343 0.065821
H -4.667618 1.053560 -0.404770
H -3.357661 1.479646 -1.578912
C 1.839571 0.026769 -0.038473
C 3.993764 -0.825493 -0.380636
C 4.080768 0.402518 0.541746
H 4.199392 -1.777603 0.161725
H 4.565463 1.275851 0.045301
C 2.272604 1.737185 1.716722
H 2.617315 2.736117 1.364722
H 1.166631 1.733824 1.780633
H 2.697679 1.554297 2.726401
C 2.068763 -1.797392 -1.709469
H 2.063795 -2.801945 -1.231726
H 1.023824 -1.527536 -1.957333
H 2.676827 -1.834650 -2.637444
N 2.593033 -0.790021 -0.812613
N 2.667698 0.689784 0.804538
H 4.631339 0.202868 1.484224
H 4.684650 -0.772905 -1.247205
C -0.292124 1.839096 -0.798314
O -0.369883 2.914016 -1.257588
C -0.188127 -1.765986 0.750976
N -0.214138 -2.864620 1.187331
