36

Ir -0.243511 -0.015606 -0.011928
P -2.553495 -0.145417 -0.048138
C -3.296807 -0.645494 1.559936
C -3.243907 -1.374243 -1.235263
C -3.463633 1.402069 -0.477682
H -2.822798 -1.609225 1.828759
H -4.397873 -0.757655 1.483437
H -3.045193 0.109687 2.329332
H -2.823886 -2.363070 -0.969609
H -2.926343 -1.109545 -2.262166
H -4.351261 -1.403761 -1.179376
H -3.209519 2.190731 0.256819
H -4.559760 1.234434 -0.473195
H -3.145171 1.746716 -1.480661
As 2.204736 -0.080503 0.011738
C 3.036989 -0.654709 -1.664263
C 3.039599 -1.278484 1.317273
C 3.137137 1.614591 0.363410
H 2.615670 -1.652025 -1.888633
H 4.138954 -0.703523 -1.562102
H 2.758192 0.054553 -2.466451
H 2.640911 -2.291683 1.123269
H 2.754056 -0.957458 2.336863
H 4.141789 -1.266122 1.208562
H 2.831743 2.354878 -0.400962
H 4.235586 1.476585 0.331176
H 2.837104 1.989968 1.360623
C -0.252668 1.865234 -0.052258
N -0.233255 3.064494 -0.103694
C -0.235882 4.445151 0.166466
H -0.850975 4.995780 -0.577517
H 0.794382 4.860500 0.120691
H -0.647088 4.662469 1.177482
N -0.171069 -2.137091 0.065795
O 0.792408 -2.733815 -0.465958
O -1.063253 -2.798590 0.635507
