31

Ir 0.256231 0.067655 0.023231
P 2.554328 -0.168180 -0.017739
C 3.073089 -1.285678 -1.381712
C 3.172743 -1.032996 1.483163
C 3.614211 1.326188 -0.178605
H 2.416152 -2.174802 -1.297809
H 4.141321 -1.572391 -1.300566
H 2.884432 -0.792341 -2.354408
H 2.564325 -1.955515 1.561587
H 2.986447 -0.405377 2.375736
H 4.251560 -1.279874 1.407856
H 3.356063 1.850887 -1.119009
H 4.691021 1.061690 -0.183398
H 3.403179 2.011877 0.665078
As -2.166073 -0.119179 -0.010474
C -3.017543 -0.895170 1.583586
C -2.763566 -1.356409 -1.409001
C -3.264294 1.472724 -0.315909
H -2.536510 -1.867536 1.804995
H -4.103757 -1.044094 1.424023
H -2.848706 -0.217983 2.442312
H -2.098652 -2.239658 -1.348297
H -2.609358 -0.875632 -2.393653
H -3.825327 -1.645235 -1.284307
H -3.064885 2.200559 0.493705
H -4.341538 1.217572 -0.340485
H -2.959926 1.927734 -1.277613
C 0.255553 1.898642 0.015702
O 0.250379 3.077687 0.026904
O 0.382505 -1.990152 0.008527
H -0.354359 -2.417760 0.480405
