51

Ir 1.035058 -0.074732 0.019998
P -1.317258 0.046840 0.020901
C -2.006881 -2.461061 1.080162
C -2.138570 -1.607097 -0.037399
C -2.003060 0.941008 -1.437174
C -1.196686 1.070377 -2.585954
C -1.702680 1.705491 -3.730357
C -3.009273 2.219154 -3.731316
C -3.811947 2.099399 -2.584120
C -3.312914 1.463307 -1.437905
C -2.113726 0.862262 1.477921
C -1.486869 1.978036 2.072367
C -2.104461 2.639212 3.144716
C -3.342753 2.196470 3.636924
C -3.970218 1.087529 3.047691
C -3.361571 0.421779 1.972167
C -2.809432 -2.070513 -1.184728
C -3.342921 -3.370409 -1.213373
C -3.217601 -4.212271 -0.098255
C -2.550198 -3.752773 1.051343
H -1.475106 -2.107295 1.978021
H -0.165227 0.681425 -2.561988
H -1.065835 1.809365 -4.621982
H -3.402145 2.724763 -4.626963
H -4.832739 2.511535 -2.578262
H -3.941195 1.383346 -0.537582
H -0.521422 2.337961 1.686521
H -1.606502 3.509364 3.599038
H -3.820131 2.715966 4.482151
H -4.941920 0.734207 3.426039
H -3.861676 -0.447867 1.520128
H -2.914094 -1.414253 -2.061751
H -3.863359 -3.723908 -2.116708
H -3.641709 -5.227879 -0.121846
H -2.454005 -4.405802 1.932888
P 3.311630 -0.024328 0.049941
C 6.444223 0.068423 0.117784
C 5.732949 1.283287 0.129416
C 4.337012 1.377571 0.100274
C 4.421796 -1.361872 0.039444
C 5.810980 -1.187071 0.073344
H 7.544068 0.102098 0.142376
H 6.310065 2.222887 0.162179
H 3.830690 2.356145 0.106343
H 3.991732 -2.374884 -0.000246
H 6.445784 -2.089326 0.063199
C 1.015029 -1.973972 -0.009859
N 1.041397 -3.172493 -0.164952
H 0.790476 -4.021089 0.335046
C 1.101310 1.969845 -0.054141
N 1.200023 3.147244 -0.098316
