32

Ir 0.000252 -0.252542 0.000030
N 2.170233 -0.136831 -0.000039
C 2.839453 -1.463955 -0.000208
C 2.605739 0.602862 -1.217033
C 2.605614 0.602306 1.217470
H 2.278306 0.044531 -2.112930
H 3.714740 0.706666 -1.223218
H 2.132641 1.599558 -1.225853
H 2.277250 0.043961 2.113009
H 2.133275 1.599347 1.226243
H 3.714694 0.705244 1.224233
H 2.539246 -2.032450 -0.898343
H 2.539231 -2.032677 0.897762
H 3.944603 -1.331033 -0.000226
N -2.169871 -0.139909 0.000067
C -2.837312 -1.467956 -0.000130
C -2.606420 0.598839 1.217306
C -2.606227 0.599059 -1.217170
H -2.277995 0.040806 2.113026
H -3.715575 0.700891 1.223613
H -2.134866 1.596272 1.226302
H -2.277321 0.041366 -2.112915
H -2.135076 1.596674 -1.225701
H -3.715425 0.700757 -1.223818
H -2.536300 -2.036286 0.897826
H -2.536358 -2.035997 -0.898297
H -3.942634 -1.336500 -0.000140
C 0.001475 -2.069848 -0.000186
O 0.002368 -3.250369 -0.000320
N -0.001134 1.803779 0.000332
C -0.002671 3.013057 -0.000003
O -0.004162 4.212766 -0.000390
