30

Ir 0.224380 -0.180282 0.038828
N 2.410561 -0.045081 -0.021542
C 2.975418 -0.687895 1.194599
C 2.908615 -0.757658 -1.229459
C 2.901033 1.357775 -0.073280
H 2.592591 -1.815606 -1.196262
H 4.020865 -0.701024 -1.277318
H 2.474726 -0.288548 -2.131014
H 2.542158 1.909146 0.812863
H 2.499517 1.857431 -0.971627
H 4.013831 1.362272 -0.100966
H 2.670752 -1.748883 1.229274
H 2.582671 -0.176765 2.092294
H 4.088207 -0.623517 1.183693
N -1.798151 -0.238837 0.060073
C -4.059063 -0.848518 -0.306273
O -3.928668 0.404258 0.428595
C -2.616611 0.606714 0.609333
C -2.610718 -1.229093 -0.681105
H -2.389877 -1.128181 -1.762973
H -2.323394 -2.254165 -0.376876
H -4.719590 -0.666202 -1.175922
H -4.546854 -1.583119 0.367483
H -2.309343 1.484781 1.192086
C 0.329130 -2.005876 0.077471
N 0.389804 -3.236325 -0.015261
H 0.445689 -3.876149 0.783743
N 0.050391 1.854542 -0.001165
C -0.161954 3.036756 -0.132732
O -0.356648 4.215355 -0.249129
