30

Ir 0.294578 -0.048628 0.014458
N 2.421931 -0.093430 0.087901
C 4.565320 0.401737 0.561495
C 3.253243 0.764245 0.788787
N 4.506061 -0.685358 -0.291344
C 3.204076 -0.959774 -0.562915
H 5.301849 -1.207442 -0.658988
H 5.510202 0.812108 0.929439
H 2.849856 1.572493 1.406113
H 2.811570 -1.783102 -1.177110
P -1.927122 -0.080245 0.020122
C -5.068917 -0.105674 0.023661
C -4.405154 1.125165 -0.125328
C -3.012090 1.269312 -0.144954
C -2.986701 -1.449128 0.193287
C -4.379967 -1.324165 0.175368
H -6.169367 -0.116172 0.024924
H -5.018275 2.036017 -0.235176
H -2.565648 2.268262 -0.267006
H -2.501795 -2.426530 0.337567
H -4.975559 -2.245553 0.293126
C 0.301745 1.839127 0.023112
N 0.325580 3.038296 0.045913
C 0.348375 4.388657 -0.361654
H -0.585682 4.906180 -0.055363
H 0.450607 4.479626 -1.465491
H 1.196726 4.927692 0.110557
N 0.345345 -2.170091 -0.098247
O -0.250279 -2.859992 0.743506
O 0.976260 -2.714818 -1.030058
