35

Ir -0.166421 0.198197 -0.027995
P -2.497695 0.056077 -0.011628
C -3.209511 -0.460743 1.609330
C -3.130914 -1.222579 -1.180236
C -3.473909 1.557938 -0.448285
H -2.670721 -1.367629 1.947731
H -4.298290 -0.659385 1.536593
H -3.023235 0.338948 2.352368
H -2.576838 -2.163061 -0.989602
H -2.904980 -0.900164 -2.215331
H -4.222270 -1.384732 -1.066881
H -3.258312 2.355375 0.289381
H -4.562005 1.345472 -0.455380
H -3.155291 1.919095 -1.445369
C 1.885819 0.072954 -0.029146
C 4.016950 -0.466728 -0.609562
C 4.082553 0.303200 0.523291
H 4.808514 -0.934100 -1.203258
H 4.940726 0.634296 1.115815
C 2.377994 1.401652 2.021969
H 2.763733 2.438547 1.945564
H 1.269876 1.412379 2.043185
H 2.759970 0.933963 2.950951
C 2.143539 -1.333790 -2.072137
H 1.248911 -1.902584 -1.749217
H 1.860221 -0.632925 -2.882190
H 2.918521 -2.031960 -2.440143
N 2.673333 -0.599283 -0.926673
N 2.774107 0.620197 0.861283
C -0.171509 1.959396 -0.604042
N -0.198084 3.069353 -1.119517
H -0.209601 3.985697 -0.667857
N -0.208671 -1.850523 0.583355
O -0.197054 -2.764395 -0.268607
O -0.280443 -2.115055 1.794541
