31

Ir -0.006606 -0.198846 0.011579
P -2.234045 -0.417922 0.026555
C -2.872002 -1.477366 1.403737
C -2.938598 -1.257075 -1.466833
C -3.278722 1.095995 0.161299
H -2.312086 -2.433160 1.389535
H -3.960791 -1.673284 1.317639
H -2.651783 -0.975130 2.365529
H -2.392325 -2.207616 -1.625707
H -2.755938 -0.615831 -2.350749
H -4.024569 -1.459724 -1.363291
H -2.985153 1.653403 1.071594
H -4.356589 0.839902 0.203474
H -3.083637 1.744407 -0.714771
N 2.126354 -0.187317 0.018226
C 4.301179 0.368585 0.152859
C 3.010101 0.853671 0.229510
N 4.172267 -0.984763 -0.108250
C 2.849398 -1.289864 -0.183873
H 4.936337 -1.650137 -0.224266
H 5.274039 0.857166 0.261008
H 2.651807 1.869362 0.425633
H 2.387283 -2.271475 -0.361518
C -0.120025 1.631129 0.187875
N -0.189198 2.842195 0.376545
C -0.322129 4.007492 -0.448385
H 0.405611 4.788856 -0.142020
H -1.334129 4.454342 -0.328553
H -0.167621 3.792946 -1.530488
O 0.294144 -2.208214 -0.202859
H -0.505435 -2.754547 -0.282870
