30

Ir 0.326813 0.069458 0.073702
P 2.657054 0.004658 -0.141989
C 3.230251 -1.135156 -1.469409
C 3.536814 -0.599386 1.358375
C 3.505970 1.589259 -0.539048
H 2.807895 -2.140951 -1.275807
H 4.337682 -1.186769 -1.502531
H 2.839213 -0.777324 -2.441189
H 3.111171 -1.588605 1.618915
H 3.335158 0.094477 2.197326
H 4.629839 -0.678271 1.186887
H 3.085834 2.001362 -1.476602
H 4.598356 1.436429 -0.650215
H 3.313981 2.319221 0.270596
P -1.945490 0.001138 0.033298
C -5.082409 -0.082047 -0.197404
C -4.351811 -1.244187 -0.505191
C -2.955650 -1.333440 -0.443911
C -3.082642 1.283761 0.332599
C -4.466323 1.119924 0.197917
H -6.179614 -0.111215 -0.277732
H -4.910906 -2.140533 -0.823428
H -2.443528 -2.268062 -0.721140
H -2.669971 2.258275 0.636932
H -5.112305 1.988117 0.413031
C 0.309050 1.927068 -0.022836
N 0.281818 3.146110 -0.142178
H 0.354707 3.838812 0.608811
S 0.497581 -2.314575 0.377238
H -0.729132 -2.624547 0.884314
