31

Ir 0.292252 -0.122381 -0.007044
N -1.722081 -0.125002 -0.012851
C -2.420967 -1.122296 -0.632537
C -3.819776 -1.130164 -0.628123
N -4.567926 -0.183567 -0.037066
C -3.871188 0.790373 0.572162
C -2.474628 0.835925 0.598406
H -1.825560 -1.913776 -1.106024
H -4.350399 -1.951862 -1.139783
H -4.444429 1.587102 1.077934
H -1.929105 1.638319 1.111349
N 2.482287 -0.273151 -0.028507
C 2.936368 -0.842230 1.271386
C 2.878572 -1.186944 -1.136203
C 3.163960 1.029552 -0.231511
H 2.380453 -2.162101 -0.987721
H 3.985395 -1.313387 -1.148850
H 2.542136 -0.754461 -2.096587
H 2.901404 1.717922 0.592020
H 2.837299 1.477131 -1.187333
H 4.267750 0.883711 -0.248595
H 2.447680 -1.821550 1.422173
H 2.632744 -0.161872 2.088432
H 4.044727 -0.955886 1.270443
C 0.312194 1.704179 -0.225916
N 0.283465 2.897758 -0.443641
C 0.291214 4.223928 0.064675
H -0.545000 4.813481 -0.367422
H 1.232042 4.745325 -0.215947
H 0.199686 4.252135 1.173789
Cl 0.224417 -2.510772 0.355583
