36

Ir -0.172221 -0.135452 0.048299
P -2.486186 -0.370085 0.072023
C -3.092610 -1.021656 1.685020
C -3.029647 -1.679171 -1.106376
C -3.580317 1.066127 -0.298868
H -2.443181 -1.890786 1.910849
H -4.158461 -1.326284 1.646238
H -2.944722 -0.257560 2.472413
H -2.399208 -2.561508 -0.879058
H -2.819414 -1.352440 -2.143082
H -4.104357 -1.931396 -0.996969
H -3.406827 1.853156 0.461170
H -4.652477 0.783282 -0.300525
H -3.300163 1.480011 -1.287481
C 1.875170 -0.251154 0.051140
C 3.988568 -1.015841 -0.335206
C 4.101300 0.197044 0.292520
H 4.754832 -1.715930 -0.681997
H 4.984174 0.762358 0.606041
C 2.486254 1.892959 1.196437
H 2.489382 2.741395 0.482032
H 1.474812 1.798152 1.633030
H 3.225367 2.085487 1.998119
C 2.073349 -2.463654 -1.102597
H 1.106851 -2.684119 -0.605672
H 1.917516 -2.287134 -2.186379
H 2.774088 -3.309362 -0.965891
N 2.633323 -1.274707 -0.466302
N 2.807816 0.643406 0.526242
C -0.209303 1.601441 -0.514970
N -0.275545 2.731963 -0.977203
C -0.356595 4.091116 -0.552133
H -1.330141 4.540391 -0.848470
H 0.434364 4.704435 -1.036412
H -0.253200 4.206143 0.551588
F -0.276843 -2.096127 0.655789
