27

Ir 0.255698 -0.393904 0.011528
N 2.376459 -0.214176 0.014574
C 2.972544 0.866382 0.578747
C 4.368893 0.991857 0.582852
N 5.186245 0.077631 0.039283
C 4.584704 -0.983924 -0.519777
C 3.193680 -1.145657 -0.538808
H 2.307303 1.627770 1.009314
H 4.832535 1.876695 1.051822
H 5.228610 -1.752789 -0.980480
H 2.720122 -2.024331 -0.998505
P -1.989389 -0.433349 0.018557
C -5.110342 -0.489859 0.036413
C -4.457878 0.756687 0.010668
C -3.067677 0.925930 0.001000
C -3.022531 -1.826319 0.046839
C -4.418526 -1.714308 0.053627
H -6.210531 -0.507237 0.042750
H -5.078250 1.668396 -0.003241
H -2.635947 1.939360 -0.022548
H -2.547046 -2.819343 0.061488
H -5.007823 -2.646281 0.073267
C 0.302812 -2.236714 0.054711
O 0.310859 -3.408619 0.069430
N 0.183639 1.631276 -0.048701
C -0.189615 2.774516 -0.116015
S -0.694033 4.297680 -0.195810
