29

Ir 0.009957 0.160891 0.037752
P 2.284264 0.091441 -0.009839
C 2.954994 -0.218646 -1.696093
C 3.066335 -1.238354 1.000285
C 3.178694 1.606514 0.541972
H 2.484034 -1.157790 -2.045929
H 4.060207 -0.313494 -1.686735
H 2.649392 0.608987 -2.364709
H 2.693469 -2.212779 0.631108
H 2.769317 -1.116970 2.059693
H 4.171184 -1.200258 0.912595
H 2.840732 2.471566 -0.060397
H 4.274274 1.478776 0.431354
H 2.935490 1.806561 1.603710
N -2.123456 0.109376 -0.041202
C -4.269202 0.657044 -0.446572
C -2.959725 1.072161 -0.581693
N -4.204516 -0.570767 0.186449
C -2.900756 -0.873681 0.421679
H -4.996827 -1.162492 0.437080
H -5.215679 1.118933 -0.742417
H -2.560517 1.990865 -1.022604
H -2.504497 -1.789417 0.884091
C 0.004200 2.003951 0.180625
N -0.001931 3.228080 0.175942
H -0.109255 3.870095 0.964234
N 0.036086 -1.980652 -0.058184
O -0.640208 -2.659741 0.742437
O 0.776146 -2.553885 -0.882770
