36

Ir -0.135514 -0.215384 0.029787
C 1.847940 -0.465061 0.050030
C 3.961101 -1.046568 0.682029
C 4.065231 -0.260475 -0.434298
H 4.730243 -1.523606 1.296774
H 4.943739 0.089192 -0.984705
C 2.456986 0.928621 -1.951059
H 1.389769 0.783264 -2.200163
H 2.620657 1.997776 -1.704392
H 3.088822 0.638226 -2.812959
C 2.062854 -1.905406 2.089852
H 1.048517 -1.515813 2.297818
H 1.985280 -2.985763 1.851527
H 2.710057 -1.767379 2.977364
N 2.607215 -1.158827 0.966137
N 2.773640 0.079030 -0.810029
N -2.234364 0.202393 0.059203
C -4.992439 0.802393 0.126570
C -4.519244 -0.347584 -0.523395
C -3.146682 -0.610769 -0.534687
C -2.696062 1.316704 0.687071
C -4.054471 1.644511 0.740688
H -6.067447 1.036118 0.152937
H -5.204909 -1.045488 -1.025679
H -2.741080 -1.504213 -1.029706
H -1.924672 1.957586 1.137391
H -4.362851 2.561031 1.264353
C -0.381884 -2.045827 -0.122990
N -0.519670 -3.251593 -0.160326
C -0.620849 -4.423786 -0.957879
H -1.547098 -4.986627 -0.713787
H 0.232777 -5.107378 -0.759659
H -0.630239 -4.192893 -2.046735
N 0.201920 1.801249 0.135004
C 0.705709 2.890610 0.067625
S 1.389545 4.348789 -0.052576
