28

Ir -0.195588 0.041042 0.024828
As 2.162120 -0.152615 -0.008790
C 2.930018 -0.514095 -1.777362
C 2.759805 -1.703092 1.022058
C 3.268045 1.330737 0.630010
H 2.431713 -1.414736 -2.183774
H 4.023556 -0.680363 -1.711492
H 2.713621 0.343410 -2.442290
H 2.036984 -2.505216 0.776831
H 2.679853 -1.469028 2.100496
H 3.796906 -1.994240 0.766932
H 2.984338 2.241411 0.068276
H 4.344904 1.115048 0.489301
H 3.053354 1.495059 1.703138
N -2.275102 -0.112279 0.015501
C -4.613920 0.230414 -0.107650
O -4.255922 -1.182509 -0.014237
C -2.918711 -1.236168 0.019148
C -3.264331 0.979484 -0.001063
H -3.160152 1.576924 0.927712
H -3.059033 1.656312 -0.853581
H -5.322729 0.455474 0.713147
H -5.129284 0.381844 -1.077991
H -2.408339 -2.211600 0.047461
C -0.154101 1.857263 0.016641
N -0.138119 3.087299 -0.102538
H -0.110961 3.729506 0.695870
F -0.251707 -1.986235 0.030085
