29

Ir 0.029700 -0.227941 0.029613
N 1.950396 0.415789 0.044174
C 2.293827 1.620214 -0.503296
C 3.615249 2.076375 -0.476849
N 4.629964 1.385270 0.069662
C 4.283476 0.203154 0.606807
C 2.976039 -0.289949 0.607165
H 1.478441 2.204803 -0.948543
H 3.851865 3.054585 -0.930338
H 5.083702 -0.398309 1.072713
H 2.722104 -1.258287 1.057903
N -1.971350 -0.772667 0.045121
C -3.875323 -1.945222 0.336235
C -2.500469 -1.997286 0.428922
N -4.168319 -0.671547 -0.109650
C -3.008669 0.014069 -0.278666
H -5.098538 -0.286809 -0.276184
H -4.648316 -2.688994 0.549563
H -1.854883 -2.820982 0.746029
H -2.956687 1.060998 -0.597236
C 0.553089 -2.005425 -0.037377
N 0.881364 -3.172140 -0.014369
C 1.239086 -4.345213 -0.734325
H 0.560871 -5.185220 -0.473789
H 2.268877 -4.666012 -0.469291
H 1.194786 -4.187989 -1.834437
N -0.605154 1.714669 0.065375
C -1.279350 2.709340 0.029174
S -2.230571 4.011731 -0.046598
