34

Ir 0.000016 0.307618 -0.210734
C -2.055789 0.183515 -0.129276
C -4.235368 0.468699 0.477752
C -4.181933 -0.593374 -0.387415
H -5.082666 0.930297 0.993696
H -4.973618 -1.244727 -0.770035
C -2.332335 -1.799157 -1.607881
H -1.489413 -1.387989 -2.195287
H -1.942028 -2.631785 -0.988782
H -3.133511 -2.155346 -2.282860
C -2.533983 2.035083 1.471855
H -1.431585 2.115767 1.401359
H -3.003210 2.980858 1.132867
H -2.820178 1.836365 2.523886
N -2.933318 0.927718 0.620024
N -2.852397 -0.743624 -0.751386
C 2.055807 0.183425 -0.129183
C 4.235453 0.468584 0.477618
C 4.181879 -0.593649 -0.387346
H 5.082815 0.930233 0.993409
H 4.973501 -1.245149 -0.769847
C 2.332144 -1.799458 -1.607571
H 1.941421 -2.631820 -0.988376
H 1.489505 -1.388181 -2.195309
H 3.133396 -2.156054 -2.282244
C 2.534215 2.035273 1.471531
H 3.003581 2.980924 1.132391
H 1.431833 2.116095 1.400993
H 2.820365 1.836701 2.523602
N 2.933438 0.927712 0.619895
N 2.852312 -0.743892 -0.751184
C 0.000079 1.821605 -1.220362
O 0.000118 2.806747 -1.866080
Br -0.000104 -1.830441 1.222455
