31

Ir -0.006755 0.084605 -0.000006
P 2.333713 0.012607 0.000010
C 3.059551 -0.868361 -1.446130
C 3.059489 -0.868337 1.446195
C 3.213504 1.631256 0.000036
H 2.619330 -1.884395 -1.485626
H 4.164676 -0.929445 -1.372832
H 2.771707 -0.333011 -2.371515
H 2.619338 -1.884403 1.485649
H 2.771557 -0.333018 2.371571
H 4.164621 -0.929372 1.372970
H 2.913360 2.208630 -0.895774
H 4.313071 1.488675 -0.000096
H 2.913568 2.208494 0.896005
P -2.330483 -0.021493 0.000021
C -3.064038 -0.891585 1.452675
C -3.064048 -0.891517 -1.452677
C -3.236302 1.584959 0.000059
H -2.606068 -1.895541 1.540076
H -4.166090 -0.979906 1.362930
H -2.806127 -0.322609 2.366909
H -2.606097 -1.895474 -1.540128
H -2.806121 -0.322495 -2.366880
H -4.166102 -0.979818 -1.362944
H -2.943968 2.166526 0.895696
H -4.333923 1.427974 0.000006
H -2.943880 2.166622 -0.895484
C -0.022219 1.927156 -0.000026
O -0.035798 3.103594 -0.000071
S 0.147268 -2.323542 -0.000054
H -1.146675 -2.752250 0.000074
