37

Ir 0.290439 0.149685 -0.013972
P -1.997194 0.050619 -0.000719
C -2.772948 1.307097 1.129304
C -2.776295 -1.539007 0.571457
C -2.765862 -2.703182 -0.424241
C -2.827235 0.375168 -1.633245
C -2.414691 1.681574 -2.313757
C -2.307442 1.182052 2.582077
H -2.497613 2.301649 0.719479
H -3.877167 1.211739 1.039054
H -2.215343 -1.818244 1.486544
H -3.816285 -1.283006 0.870941
H -2.563444 -0.490612 -2.275449
H -3.925647 0.329388 -1.461610
H -1.742571 -2.964983 -0.756167
H -3.192758 -3.606896 0.055932
H -3.378686 -2.489509 -1.323422
H -2.643487 2.571890 -1.693303
H -1.325781 1.689303 -2.519376
H -2.947626 1.804214 -3.278549
H -2.606698 0.212760 3.029725
H -1.201673 1.246133 2.641299
H -2.741321 1.989038 3.207038
N 2.423799 0.092370 -0.010979
C 4.543631 -0.540894 -0.409883
C 3.218447 -0.867546 -0.615387
N 4.534699 0.631173 0.323183
C 3.241694 0.986972 0.549080
H 5.353763 1.146526 0.646430
H 5.470385 -1.034378 -0.716774
H 2.759218 -1.720690 -1.128666
H 2.930333 1.879419 1.101599
C 0.222036 1.987354 -0.140314
O 0.180037 3.161149 -0.182674
N 0.391683 -1.958413 0.187746
O 0.733358 -2.634059 -0.807367
O 0.103763 -2.506116 1.261502
