25

Ir -0.001983 0.049627 -0.000148
N -2.052618 0.034577 -0.000229
C -4.321895 -0.689170 0.006461
O -4.193548 0.765380 -0.001507
C -2.885015 1.033348 -0.000573
C -2.868241 -1.208191 -0.004429
H -2.611428 -1.807180 -0.898854
H -2.603214 -1.820653 0.878144
H -4.908325 -0.979610 -0.887695
H -4.890480 -0.970703 0.915134
H -2.598285 2.094061 -0.000793
N 2.048141 -0.084006 0.000162
C 4.366411 0.456776 0.002455
O 4.120195 -0.979171 -0.000168
C 2.795220 -1.150177 -0.000270
C 2.956603 1.086819 -0.000151
H 2.752968 1.706372 -0.895924
H 2.750949 1.708910 0.893336
H 4.966714 0.699039 -0.896956
H 4.961881 0.696426 0.905833
H 2.407411 -2.179693 -0.000824
C 0.035109 1.916963 -0.000253
O 0.046643 3.090617 -0.000445
C -0.033178 -2.003220 -0.000287
N -0.014369 -3.185105 -0.000043
