31

Ir -0.401653 0.092814 -0.000147
As 1.965518 -0.028182 0.000037
C 2.978452 1.646677 0.000655
C 2.718009 -1.002065 -1.520759
C 2.717375 -1.002827 1.520660
H 2.705492 2.232186 -0.897700
H 4.066293 1.440421 0.000532
H 2.705576 2.231430 0.899529
H 2.446861 -0.475835 -2.455248
H 2.259561 -2.009285 -1.525084
H 3.819340 -1.076198 -1.429247
H 2.444598 -0.477788 2.455343
H 3.818877 -1.075805 1.430328
H 2.259855 -2.010481 1.523534
N -2.626338 -0.119977 0.000094
C -3.319864 1.190822 -0.000021
C -3.028776 -0.876852 -1.213948
C -3.028322 -0.876410 1.214598
H -2.704732 -0.322298 -2.113972
H -4.135779 -1.006861 -1.235808
H -2.537248 -1.866363 -1.210283
H -2.703773 -0.321600 2.114278
H -2.536922 -1.865983 1.210999
H -4.135331 -1.006269 1.236987
H -3.029872 1.765469 -0.898506
H -3.029615 1.765762 0.898194
H -4.424594 1.044456 0.000163
C -0.368181 1.960452 -0.000060
O -0.276082 3.129549 -0.000034
C -0.272250 -1.952511 -0.000053
N -0.144147 -3.128846 -0.000109
