27

Ir -0.001758 0.067125 0.054995
P -2.285859 0.004370 0.012651
C -5.413097 -0.047656 -0.160415
C -4.786265 1.117037 0.320326
C -3.399311 1.267912 0.439311
C -3.300415 -1.285335 -0.555892
C -4.696974 -1.184284 -0.578283
H -6.511789 -0.066754 -0.220071
H -5.424273 1.964898 0.621261
H -2.976616 2.209948 0.822728
H -2.790378 -2.192668 -0.915097
H -5.267853 -2.048723 -0.957158
P 2.293909 0.010614 -0.019586
C 5.420794 -0.037634 -0.139113
C 4.742454 -1.216690 0.221573
C 3.349996 -1.323986 0.318875
C 3.364898 1.317553 -0.421363
C 4.756770 1.165688 -0.440755
H 6.520378 -0.055581 -0.181326
H 5.343469 -2.112795 0.450748
H 2.870298 -2.268680 0.620564
H 2.911574 2.289993 -0.670326
H 5.367274 2.044017 -0.709566
C -0.001797 1.926445 0.026890
O -0.010628 3.096925 0.026263
S 0.056570 -2.346262 0.110658
H -1.069910 -2.586532 0.840067
