37

Ir 0.307322 0.007240 -0.012802
P -1.969940 -0.007354 0.005876
C -2.691147 0.962000 1.422989
C -2.839364 -1.644054 0.160303
C -2.846524 -2.506987 -1.103644
C -2.820417 0.742858 -1.474266
C -2.423050 2.178544 -1.817636
C -2.242938 0.450540 2.794234
H -2.358367 2.011020 1.275043
H -3.798627 0.952179 1.320166
H -2.312996 -2.174634 0.979324
H -3.874558 -1.425896 0.503754
H -2.583435 0.068771 -2.323151
H -3.914784 0.657786 -1.290692
H -1.816052 -2.666027 -1.476889
H -3.277264 -3.504850 -0.881114
H -3.456425 -2.058903 -1.914060
H -2.610261 2.881832 -0.981043
H -1.346833 2.242515 -2.070726
H -3.001105 2.542339 -2.691739
H -2.603096 -0.580388 2.987806
H -1.135613 0.432526 2.857191
H -2.631838 1.098825 3.605950
N 2.456652 -0.045483 -0.048074
C 4.592602 -0.757407 -0.098355
C 3.274502 -1.163304 -0.055410
N 4.560228 0.624612 -0.116286
C 3.260137 1.022173 -0.085386
H 5.367063 1.248111 -0.147061
H 5.528874 -1.322933 -0.117406
H 2.834719 -2.166203 -0.026430
H 2.935804 2.067853 -0.088095
C 0.300648 1.875902 0.074267
O 0.314606 3.045393 0.207429
C 0.342290 -2.030925 0.086936
C 0.403884 -3.266716 0.192993
H 0.441312 -4.343903 0.285690
