40

Ir 0.454594 0.069937 0.001717
P -1.811949 0.001243 -0.001927
C -2.645845 -0.824117 1.451558
C -2.581810 -0.826455 -1.481766
C -2.138210 -0.217232 -2.813485
C -2.675431 1.654802 -0.004643
C -2.569072 2.448359 1.300169
C -2.628296 -2.351731 1.495587
H -2.137624 -0.402654 2.343749
H -3.689611 -0.438517 1.463172
H -2.286389 -1.894435 -1.423985
H -3.686276 -0.791791 -1.355010
H -2.239535 2.231985 -0.845755
H -3.739333 1.458567 -0.261915
H -1.032163 -0.233732 -2.896515
H -2.563675 -0.780727 -3.668772
H -2.464073 0.838014 -2.915285
H -3.082650 1.937327 2.138976
H -1.514041 2.610446 1.594691
H -3.038120 3.446421 1.183045
H -3.204328 -2.795608 0.657894
H -1.590563 -2.739112 1.437280
H -3.089941 -2.711228 2.438125
N 2.748365 0.015967 0.106933
C 3.320674 1.367672 0.303605
C 3.167699 -0.838851 1.243409
C 3.262103 -0.548411 -1.164376
H 2.757255 -0.425081 2.183362
H 4.280126 -0.877577 1.309926
H 2.779711 -1.864760 1.101446
H 2.942097 0.097672 -2.003324
H 2.827838 -1.555983 -1.307268
H 4.375893 -0.605679 -1.141982
H 2.924684 1.808436 1.236939
H 3.042042 2.022503 -0.541681
H 4.432389 1.312580 0.367135
C 0.437541 1.900705 -0.099309
O 0.410458 3.072004 -0.228507
S 0.581757 -2.353659 -0.033249
H -0.354655 -2.668545 -0.970537
