26

Ir 0.004173 -0.314411 0.008076
P 2.277788 -0.232342 0.007572
C 3.006988 0.680813 1.431971
C 3.011570 0.602090 -1.462236
C 3.166901 -1.846731 0.052187
H 2.573309 1.699489 1.438714
H 4.112133 0.729832 1.352038
H 2.718893 0.169456 2.370641
H 2.580664 1.620047 -1.524315
H 2.723347 0.042574 -2.372985
H 4.116751 0.652575 -1.383425
H 2.873667 -2.403425 0.963108
H 4.264429 -1.690975 0.049725
H 2.876712 -2.451030 -0.828895
N -2.140283 -0.237100 0.001224
C -4.306587 -0.834543 -0.178474
C -3.005174 -1.279367 -0.290873
N -4.211251 0.494336 0.188991
C -2.896964 0.824723 0.291636
H -4.990282 1.131200 0.357300
H -5.265715 -1.339298 -0.326579
H -2.634762 -2.273837 -0.557799
H -2.503379 1.817375 0.542996
C 0.014261 -2.130053 0.058958
O 0.031933 -3.307585 0.085762
Br 0.066439 2.244264 -0.064360
