25

Ir 0.002376 0.063172 -0.040110
N -2.054430 0.066979 -0.013989
C -4.323840 -0.608382 0.109663
O -4.169400 0.839513 0.218547
C -2.851212 1.070417 0.209308
C -2.921292 -1.113212 -0.266108
H -2.826644 -1.393057 -1.336241
H -2.553172 -1.966523 0.336859
H -5.103203 -0.813388 -0.648630
H -4.671516 -0.980045 1.096626
H -2.528422 2.106793 0.379584
N 2.049941 -0.025486 -0.024061
C 4.331612 0.482960 0.380233
O 4.149931 -0.821429 -0.243238
C 2.829998 -1.006875 -0.370618
C 2.919540 1.103246 0.381079
H 2.799837 1.930802 -0.348354
H 2.604519 1.480477 1.372645
H 5.075795 1.047288 -0.214143
H 4.737460 0.314284 1.399262
H 2.463612 -1.983213 -0.719681
C 0.024089 1.892731 -0.189680
O 0.016982 3.067706 -0.285018
S 0.019835 -2.364033 0.247838
H -0.500627 -2.685187 -0.974140
