38

Ir -0.153889 0.008825 -0.009288
P -2.476709 -0.184926 0.003752
C -3.170806 -0.810537 1.594485
C -3.102823 -1.402369 -1.233527
C -3.488900 1.321085 -0.336233
H -2.605150 -1.720782 1.875516
H -4.254665 -1.032854 1.515412
H -2.999402 -0.051144 2.382068
H -2.536780 -2.345600 -1.100188
H -2.885703 -1.019500 -2.249738
H -4.191591 -1.584422 -1.124516
H -3.270655 2.083866 0.436683
H -4.573728 1.091729 -0.332478
H -3.198912 1.734912 -1.321718
C 1.898230 -0.057101 -0.011931
C 4.051206 -0.487264 -0.609493
C 4.085412 0.225381 0.561467
H 4.860997 -0.895673 -1.221858
H 4.929284 0.555150 1.174965
C 2.336757 1.183469 2.105305
H 2.645376 2.248184 2.063400
H 1.230762 1.114351 2.142382
H 2.769035 0.710482 3.009217
C 2.218013 -1.342156 -2.126595
H 1.313729 -1.921105 -1.851132
H 1.960865 -0.611178 -2.918966
H 3.002161 -2.028930 -2.497315
N 2.714038 -0.653321 -0.938932
N 2.765195 0.475603 0.909789
C -0.207352 1.836767 -0.400334
N -0.265459 3.000293 -0.721629
C -0.381095 4.380018 -0.426528
H -1.409291 4.743701 -0.643591
H 0.315030 4.978622 -1.051557
H -0.159841 4.598772 0.642577
N -0.153558 -2.074238 0.445423
O -0.108698 -2.913680 -0.481064
O -0.240648 -2.445855 1.626996
