28

Ir -0.190932 0.279075 0.008039
As 2.187185 0.212427 -0.017617
C 3.148810 1.919963 -0.050318
C 2.951124 -0.732799 -1.552391
C 3.024986 -0.710878 1.492522
H 2.788547 2.517809 -0.908670
H 4.239750 1.749942 -0.133359
H 2.926239 2.473747 0.881618
H 2.663506 -0.199248 -2.477911
H 2.504707 -1.745260 -1.565414
H 4.054186 -0.790782 -1.469731
H 2.780341 -0.166591 2.424203
H 4.123136 -0.767108 1.358681
H 2.582682 -1.724042 1.540599
N -2.292606 0.179369 -0.010341
C -4.599107 0.725949 0.148032
O -4.371191 -0.625624 -0.351604
C -3.045537 -0.796785 -0.408359
C -3.181112 1.276058 0.426079
H -2.992501 1.488229 1.497852
H -2.941405 2.195473 -0.144117
H -5.238054 0.650089 1.049946
H -5.149225 1.285749 -0.635143
H -2.662489 -1.765471 -0.764135
C -0.193005 2.101026 -0.052752
N -0.190627 3.321883 -0.213057
H -0.165066 4.018403 0.537239
Br -0.093557 -2.283395 0.089441
