54

Ir -1.065322 -0.591762 0.007717
P 1.194321 0.068308 0.012659
C 1.671901 -1.375639 -2.338866
C 2.251203 -0.923470 -1.133787
C 2.053063 -0.076526 1.641923
C 1.695212 -1.134739 2.504155
C 2.358237 -1.298267 3.729530
C 3.373726 -0.405293 4.109997
C 3.728582 0.653051 3.258261
C 3.073794 0.818362 2.027348
C 1.494917 1.811529 -0.495174
C 0.944287 2.837351 0.304348
C 1.060965 4.176980 -0.088913
C 1.735467 4.506352 -1.276689
C 2.294742 3.491372 -2.068066
C 2.172815 2.145729 -1.684137
C 3.601312 -1.218962 -0.859351
C 4.361904 -1.955951 -1.781226
C 3.784244 -2.397135 -2.982828
C 2.438500 -2.104016 -3.261113
H 0.609326 -1.155412 -2.534755
H 0.891099 -1.826385 2.210793
H 2.072124 -2.126264 4.396204
H 3.886320 -0.531097 5.076211
H 4.520141 1.359127 3.553262
H 3.351763 1.652555 1.365196
H 0.406940 2.585967 1.230449
H 0.600218 4.963194 0.527365
H 1.819342 5.558701 -1.588718
H 2.826808 3.744721 -2.998032
H 2.604404 1.354890 -2.315648
H 4.059242 -0.878406 0.081736
H 5.414432 -2.188071 -1.556744
H 4.383880 -2.974573 -3.703400
H 1.980573 -2.448625 -4.201273
P -3.340149 -1.107529 0.024017
C -4.281957 -0.387900 -1.385033
C -4.218496 -0.441993 1.499051
C -3.801690 -2.889171 -0.000158
H -4.148945 0.711527 -1.372308
H -5.360623 -0.635404 -1.311504
H -3.871312 -0.779600 -2.335466
H -4.076404 0.656157 1.524277
H -3.771060 -0.875150 2.414234
H -5.301448 -0.678591 1.460951
H -3.418314 -3.349695 -0.931246
H -4.901379 -3.018635 0.052388
H -3.320899 -3.400915 0.855769
C -0.549429 -2.364681 0.015038
N -0.226940 -3.540290 0.134206
H 0.103147 -4.180063 -0.592032
N -1.720147 1.336592 -0.010202
C -2.253326 2.413041 -0.002849
S -2.965773 3.859986 0.018200
