35

Ir 0.232593 -0.212680 -0.065101
P 2.553265 0.044213 0.031628
C 3.145284 0.578384 1.694175
C 3.206348 1.368394 -1.073285
C 3.618958 -1.407953 -0.360845
H 2.571096 1.483247 1.973936
H 4.232541 0.798168 1.697716
H 2.920591 -0.216934 2.431023
H 2.634377 2.291646 -0.856212
H 3.021612 1.085031 -2.127703
H 4.290146 1.544688 -0.916688
H 3.340378 -2.249946 0.302251
H 4.695046 -1.171780 -0.236529
H 3.428097 -1.722196 -1.405567
C -1.821956 -0.255580 -0.053475
C -4.009257 0.254793 -0.435302
C -3.978233 -0.762990 0.481458
H -4.851706 0.794146 -0.878709
H -4.788931 -1.291731 0.991876
C -2.162333 -2.095080 1.607525
H -2.046912 -3.060750 1.076084
H -1.169639 -1.791920 1.989069
H -2.874526 -2.209386 2.446530
C -2.289649 1.590031 -1.686628
H -2.382290 2.591932 -1.221168
H -1.231066 1.419988 -1.955275
H -2.923023 1.539109 -2.593773
N -2.690206 0.546412 -0.752263
N -2.640717 -1.057180 0.703838
C 0.327720 -1.985574 -0.532796
N 0.380151 -3.199036 -0.731916
H 0.425480 -3.648762 -1.650601
N 0.141165 1.786634 0.444291
C -0.324416 2.887693 0.620835
O -0.763430 3.994765 0.781809
