43

Ir -0.233754 -0.213278 0.055640
P 2.048167 -0.337466 0.047798
C 2.890711 0.193095 1.620195
C 2.843104 0.739405 -1.241873
C 2.333827 0.476590 -2.660561
C 2.828701 -1.998690 -0.287222
C 2.804006 -2.996846 0.874259
C 2.520503 1.590171 2.122333
H 2.614386 -0.571062 2.376348
H 3.986205 0.097616 1.447494
H 2.636525 1.790132 -0.950539
H 3.942128 0.588931 -1.161902
H 2.288613 -2.405126 -1.167654
H 3.873694 -1.806147 -0.613957
H 1.235844 0.621445 -2.709771
H 2.807161 1.174930 -3.380194
H 2.554381 -0.556356 -3.000994
H 3.447941 -2.667654 1.713933
H 1.780058 -3.143600 1.270533
H 3.183660 -3.985234 0.542413
H 2.771424 2.388781 1.395742
H 1.433243 1.662952 2.319625
H 3.060108 1.813323 3.065272
N -2.350753 0.098412 0.076156
C -5.126353 0.576591 0.125230
C -4.229721 1.474391 0.721727
C -2.857749 1.206307 0.676606
C -3.220089 -0.770009 -0.500124
C -4.603096 -0.566507 -0.497642
H -6.210657 0.763488 0.144043
H -4.580717 2.387846 1.223208
H -2.116241 1.891623 1.110838
H -2.772271 -1.655600 -0.972207
H -5.256905 -1.304105 -0.985223
C -0.417895 -2.057985 0.084421
N -0.566970 -3.260020 0.132420
C -0.564777 -4.523038 -0.514457
H -1.416636 -5.144968 -0.167870
H 0.366194 -5.081346 -0.272781
H -0.630594 -4.427101 -1.621522
N -0.029385 1.815924 -0.082473
C 0.380259 2.934838 -0.242576
S 0.963760 4.425099 -0.448170
