37

Ir 0.374668 -0.385079 -0.005520
P -1.914731 -0.446242 0.017990
C -2.739351 -0.063513 -1.604602
C -2.673728 0.784002 1.184920
C -2.165220 0.666714 2.623202
C -2.729413 -2.040692 0.532526
C -2.720456 -3.171923 -0.499268
C -2.324930 1.260027 -2.250818
H -2.485554 -0.912954 -2.272539
H -3.837247 -0.107391 -1.426768
H -2.449515 1.792594 0.780169
H -3.775703 0.647143 1.123688
H -2.208099 -2.353335 1.461145
H -3.772242 -1.784229 0.820305
H -1.065089 0.797436 2.657446
H -2.625235 1.447215 3.262451
H -2.402504 -0.319117 3.073484
H -3.313130 -2.915285 -1.399876
H -1.695378 -3.432545 -0.825304
H -3.168021 -4.088086 -0.062894
H -2.555904 2.138410 -1.615450
H -1.235065 1.279437 -2.447085
H -2.853800 1.396710 -3.215971
N 2.500228 -0.113143 -0.029328
C 4.532542 0.852441 -0.086756
C 3.174321 1.095639 -0.084637
N 4.668580 -0.521643 -0.031680
C 3.427112 -1.075140 0.001856
H 5.546658 -1.041188 -0.017615
H 5.392446 1.527746 -0.121973
H 2.625857 2.041812 -0.117349
H 3.231213 -2.151504 0.048253
C 0.529807 -2.203609 0.074119
O 0.666490 -3.372348 0.147551
N 0.214799 1.649510 -0.037386
C -0.169495 2.788061 -0.003411
S -0.709157 4.306596 0.039790
