30

Ir 0.162161 -0.113236 -0.028045
P -2.059738 -0.153668 -0.038249
C -5.195523 -0.225225 -0.042217
C -4.550328 1.020635 -0.142176
C -3.159490 1.187454 -0.151766
C -3.095621 -1.544395 0.070150
C -4.490528 -1.440130 0.056966
H -6.295716 -0.251474 -0.043923
H -5.177307 1.925173 -0.220534
H -2.724342 2.194968 -0.240608
H -2.589879 -2.519374 0.144212
H -5.073666 -2.374104 0.128782
N 2.299021 -0.164994 -0.033545
C 5.107887 -0.258600 -0.051934
C 4.362208 -1.180405 0.695655
C 2.964893 -1.109419 0.678652
C 3.019437 0.729555 -0.756701
C 4.416769 0.711162 -0.793831
H 6.207867 -0.295210 -0.058696
H 4.851144 -1.963002 1.293577
H 2.331114 -1.834557 1.210032
H 2.438443 1.477054 -1.315225
H 4.949164 1.454980 -1.403952
C 0.159131 1.737804 0.013107
N 0.177746 2.947870 -0.027329
C 0.154518 4.180251 0.682322
H 0.136784 4.026247 1.783591
H -0.739638 4.774909 0.398371
H 1.045539 4.792364 0.428794
Cl 0.208981 -2.512708 -0.029084
