43

Ir 0.306564 -0.147003 -0.007954
P -2.020347 -0.294001 0.027914
C -2.795288 0.622404 1.447374
C -2.693943 -2.016260 0.197412
C -2.349378 -2.942198 -0.973440
C -2.941609 0.371866 -1.446716
C -2.573588 1.806424 -1.830479
C -2.254808 0.185859 2.811339
H -2.557386 1.692609 1.269439
H -3.900135 0.511823 1.382138
H -2.243730 -2.410727 1.131990
H -3.791470 -1.937389 0.365335
H -2.703494 -0.318407 -2.282520
H -4.030362 0.268577 -1.241736
H -1.248505 -2.991731 -1.086304
H -2.733871 -3.965050 -0.781539
H -2.799751 -2.597612 -1.926898
H -2.796044 2.527278 -1.017071
H -1.490955 1.881168 -2.055713
H -3.139761 2.132349 -2.726917
H -2.521211 -0.865107 3.045186
H -1.148097 0.263191 2.827881
H -2.664160 0.821783 3.622726
P 2.626570 -0.291580 -0.014380
C 3.234857 -1.319659 1.385702
C 3.647825 1.239113 0.043349
C 3.225047 -1.215882 -1.488728
H 3.017778 -0.806029 2.342015
H 4.319739 -1.537604 1.307917
H 2.645718 -2.257097 1.345930
H 3.372005 1.819538 0.945446
H 3.415380 1.857871 -0.845371
H 4.732607 1.010202 0.062452
H 2.608467 -2.135934 -1.524114
H 4.303653 -1.465946 -1.423508
H 3.025995 -0.622348 -2.401760
C 0.234944 1.674704 0.165952
N 0.201682 2.875562 0.389699
C 0.144172 4.127132 -0.294164
H 0.939392 4.811600 0.071470
H -0.826718 4.634657 -0.103165
H 0.261115 4.018917 -1.396225
F 0.508205 -2.174177 -0.147907
