55

Ir -1.382042 -0.220547 0.016128
P 0.866611 -0.126734 -0.001252
C 1.333299 2.141509 1.576165
C 1.589025 1.546732 0.320879
C 1.633036 -0.623809 -1.611750
C 0.853945 -0.488952 -2.779388
C 1.397644 -0.814198 -4.031742
C 2.717874 -1.283660 -4.125893
C 3.493817 -1.430196 -2.963592
C 2.955587 -1.102994 -1.709513
C 1.737775 -1.188970 1.240531
C 1.157422 -2.430932 1.579392
C 1.812863 -3.278990 2.485348
C 3.037364 -2.900634 3.060798
C 3.612276 -1.663528 2.728261
C 2.967008 -0.807878 1.820831
C 2.313301 2.265323 -0.647976
C 2.782452 3.559894 -0.363183
C 2.538277 4.141206 0.890311
C 1.813032 3.426973 1.861223
H 0.747776 1.588797 2.328100
H -0.187520 -0.140534 -2.676497
H 0.782717 -0.708015 -4.938849
H 3.142409 -1.544935 -5.107743
H 4.525681 -1.808176 -3.032711
H 3.564914 -1.229447 -0.801511
H 0.188128 -2.705939 1.126363
H 1.356498 -4.246224 2.747951
H 3.543900 -3.569200 3.774376
H 4.569473 -1.358357 3.179129
H 3.420962 0.163251 1.570491
H 2.510798 1.813878 -1.631846
H 3.346215 4.114665 -1.129118
H 2.911639 5.152769 1.112935
H 1.614981 3.878293 2.845884
N -3.599049 -0.543693 0.062340
C -3.934447 -1.385867 -1.111156
C -3.880012 -1.293842 1.310567
C -4.388141 0.703714 0.032578
H -3.234837 -2.191293 1.320058
H -4.956120 -1.583518 1.358444
H -3.626999 -0.658828 2.180175
H -4.153947 1.271871 -0.886306
H -4.122909 1.329923 0.904168
H -5.479477 0.476708 0.060170
H -3.298577 -2.289342 -1.077099
H -3.715387 -0.823258 -2.038016
H -5.013700 -1.667039 -1.093488
C -1.472935 1.606430 -0.105200
N -1.558690 2.803016 -0.302835
C -1.426484 4.095495 0.276257
H -2.195108 4.788043 -0.126889
H -0.430024 4.525711 0.035700
H -1.522788 4.072373 1.385048
F -1.403367 -2.260139 0.074333
