28

Ir 0.323629 0.019992 0.000013
N 2.471799 -0.263928 0.000000
C 3.267368 0.987320 -0.000219
C 2.803754 -1.060272 1.214416
C 2.803553 -1.060553 -1.214334
H 2.565742 -0.464240 2.114596
H 3.886160 -1.323745 1.214171
H 2.180066 -1.972111 1.205794
H 2.565455 -0.464715 -2.114615
H 2.179997 -1.972461 -1.205397
H 3.885988 -1.323971 -1.214198
H 3.022122 1.583505 0.897340
H 3.021989 1.583318 -0.897854
H 4.355207 0.749962 -0.000279
N -1.718722 -0.033040 -0.000055
C -4.538905 -0.261362 -0.000057
C -3.717554 -1.398758 -0.000161
C -2.329278 -1.256877 -0.000129
C -2.519191 1.072387 0.000136
C -3.912948 0.993694 0.000133
H -5.635459 -0.349771 -0.000056
H -4.143649 -2.412713 -0.000272
H -1.629402 -2.107594 0.000007
H -2.007498 2.043598 0.000250
H -4.495224 1.926575 0.000308
C 0.395681 1.824200 -0.000081
O 0.454776 3.004420 -0.000065
F 0.322713 -2.003365 0.000208
