32

Ir 0.216783 -0.078869 -0.033279
N 2.359715 0.017996 0.008425
C 4.549359 -0.501669 -0.159215
C 3.263986 -0.979321 -0.318973
N 4.405719 0.803656 0.271981
C 3.077820 1.087158 0.362738
H 5.161081 1.453274 0.489733
H 5.526675 -0.968834 -0.312017
H 2.928767 -1.968512 -0.645882
H 2.642377 2.042625 0.681146
C -1.772247 -0.002180 -0.028885
C -4.020182 -0.446936 0.486189
C -3.945113 0.780864 -0.434923
H -4.442415 -1.340603 -0.033212
H -4.180235 1.728110 0.106534
C -2.040514 1.740687 -1.789859
H -2.077170 2.771595 -1.373090
H -0.982772 1.494005 -2.004478
H -2.636035 1.702071 -2.726927
C -2.218214 -1.678189 1.764536
H -2.442937 -2.704037 1.391665
H -1.126702 -1.585041 1.927405
H -2.749139 -1.529788 2.728860
N -2.612878 -0.664486 0.815987
N -2.542256 0.769231 -0.845374
H -4.623910 0.713854 -1.310332
H -4.626020 -0.271521 1.399342
C 0.203497 -1.865112 -0.594302
O 0.167168 -2.997091 -0.908699
C 0.163173 1.849266 0.667581
C 0.115887 3.015594 1.092244
H 0.062007 4.026673 1.473417
