34

Ir -0.228645 0.143994 -0.021537
P -2.532521 0.013323 -0.036893
C -3.255813 -0.839672 1.427944
C -3.212360 -0.943832 -1.457335
C -3.470604 1.600545 -0.107829
H -2.779376 -1.837233 1.499710
H -4.356578 -0.942106 1.336522
H -3.004720 -0.266101 2.341014
H -2.735454 -1.943597 -1.442243
H -2.932552 -0.436853 -2.400911
H -4.315553 -1.040563 -1.392383
H -3.222233 2.207585 0.784440
H -4.564203 1.420409 -0.140043
H -3.158264 2.166129 -1.007034
As 2.208570 0.033023 -0.027720
C 2.976329 -0.977788 -1.520101
C 3.012210 -0.867565 1.515825
C 3.218174 1.715849 -0.100490
H 2.501182 -1.977448 -1.511182
H 4.075743 -1.066056 -1.417497
H 2.720343 -0.466667 -2.467452
H 2.536825 -1.864296 1.591576
H 2.779751 -0.288686 2.429722
H 4.108777 -0.964931 1.393296
H 2.900110 2.281695 -0.996952
H 4.308309 1.524968 -0.140470
H 2.976019 2.314854 0.798375
C -0.229090 1.982216 -0.118639
N -0.220904 3.187751 -0.266121
C -0.201280 4.456857 0.375423
H -1.073333 5.069057 0.060165
H 0.710877 5.025006 0.092124
H -0.222910 4.368720 1.484768
Br -0.172034 -2.420999 0.114430
