34

Ir -0.177612 0.079982 -0.044681
P -2.505146 -0.056548 0.065785
C -3.142440 -0.376730 1.766701
C -3.234922 -1.448487 -0.899701
C -3.493937 1.401236 -0.485769
H -2.661780 -1.303615 2.136688
H -4.245819 -0.490442 1.774026
H -2.847552 0.459511 2.429730
H -2.751646 -2.384040 -0.555413
H -3.002164 -1.308642 -1.973214
H -4.333427 -1.511803 -0.759851
H -3.186481 2.289595 0.099561
H -4.581718 1.227965 -0.358752
H -3.274866 1.603643 -1.552383
C 1.874621 -0.012303 -0.007991
C 4.018207 -0.710629 -0.327609
C 4.059640 0.368187 0.516302
H 4.820482 -1.340076 -0.724402
H 4.905016 0.870709 0.995899
C 2.339718 1.902715 1.529457
H 2.517126 2.864456 1.006643
H 1.256268 1.798636 1.729225
H 2.901119 1.889628 2.483677
C 2.189244 -2.014473 -1.469820
H 1.941494 -2.896376 -0.846569
H 1.260336 -1.680090 -1.968169
H 2.954675 -2.275936 -2.224959
N 2.683116 -0.923394 -0.639216
N 2.746008 0.777465 0.701170
C -0.179550 1.817843 -0.764856
N -0.189025 2.977482 -1.145384
H -0.211110 3.389738 -2.078405
C -0.227245 -1.849621 0.669479
N -0.301054 -2.971505 1.038164
