36

Ir 0.166289 0.021369 -0.009062
N 2.296306 -0.034863 -0.017934
C 2.928107 -1.237271 -0.025362
C 4.326704 -1.307910 -0.039141
N 5.118744 -0.223120 -0.045861
C 4.480526 0.958010 -0.038278
C 3.084803 1.069874 -0.024700
H 2.255663 -2.111499 -0.017728
H 4.819386 -2.295730 -0.045078
H 5.099029 1.872440 -0.043366
H 2.583613 2.048367 -0.019550
P -2.114074 -0.160168 0.018102
C -2.913928 0.751456 1.423132
C -2.711993 -1.904434 0.215196
C -2.436743 -2.818643 -0.981985
C -3.034012 0.445999 -1.478112
C -2.829069 1.921171 -1.826797
C -2.396490 0.318621 2.797408
H -2.693740 1.825646 1.247249
H -4.015174 0.623621 1.335155
H -2.185491 -2.291138 1.111240
H -3.796619 -1.847585 0.456600
H -2.695039 -0.198638 -2.315278
H -4.108784 0.214248 -1.306876
H -1.347275 -2.857954 -1.171661
H -2.788603 -3.847495 -0.763252
H -2.959375 -2.482191 -1.900316
H -3.142529 2.596302 -1.005101
H -1.766504 2.139510 -2.048677
H -3.425215 2.191536 -2.721863
H -2.655442 -0.735630 3.023316
H -1.291781 0.409168 2.843201
H -2.832852 0.948518 3.598821
C 0.056446 1.830459 -0.018136
O -0.007792 3.008981 0.000830
F 0.298272 -1.986041 0.065554
