31

Ir -0.145697 0.107852 -0.007859
C -2.195243 0.026858 -0.033545
C -4.389413 0.231080 0.521993
C -4.314899 -0.552936 -0.600443
H -5.251433 0.566043 1.106500
H -5.100532 -1.038984 -1.186794
C -2.425276 -1.457015 -2.018831
H -1.689384 -0.850163 -2.579563
H -1.898725 -2.338046 -1.602382
H -3.249314 -1.769107 -2.686589
C -2.704430 1.385913 1.997156
H -1.598994 1.369979 2.061112
H -3.058167 2.429606 1.873264
H -3.132113 0.960257 2.926079
N -3.085177 0.574450 0.851554
N -2.971300 -0.660804 -0.925022
P 2.145667 0.013232 0.016906
C 5.282878 -0.160004 0.029516
C 4.677579 1.049259 -0.358693
C 3.292216 1.251474 -0.404268
C 3.143854 -1.344206 0.444209
C 4.541663 -1.295392 0.409697
H 6.381872 -0.221788 0.033597
H 5.333170 1.888769 -0.646825
H 2.885245 2.223110 -0.726767
H 2.607246 -2.258211 0.744448
H 5.096858 -2.204518 0.697753
C -0.119123 1.881736 -0.480323
N -0.091133 3.033256 -0.899731
H -0.078999 3.894282 -0.348180
Cl -0.230508 -2.228426 0.615263
