33

Ir -0.382854 -0.163877 -0.007180
As 1.991773 -0.052905 -0.003465
C 2.764389 0.410828 1.732349
C 2.804836 1.268799 -1.197730
C 2.962792 -1.688154 -0.477249
H 2.303201 1.372257 2.024883
H 3.865703 0.504956 1.659475
H 2.493116 -0.371776 2.465695
H 2.410931 2.261184 -0.909961
H 2.511190 1.041551 -2.239798
H 3.907689 1.245128 -1.098499
H 2.629679 -2.510358 0.183501
H 4.053178 -1.529393 -0.368455
H 2.726983 -1.956642 -1.524699
N -2.625389 -0.098259 0.089015
C -3.199193 -1.395296 0.516407
C -3.058653 0.943483 1.056575
C -3.123649 0.245966 -1.267411
H -2.619089 0.728436 2.048433
H -4.170050 0.948867 1.138905
H -2.718431 1.933421 0.708327
H -2.820921 -0.545989 -1.977367
H -2.664896 1.205826 -1.570705
H -4.235734 0.332846 -1.260304
H -2.799759 -1.669634 1.510110
H -2.920572 -2.186531 -0.201896
H -4.310188 -1.325311 0.568970
C -0.308743 -2.009133 -0.071393
N -0.196168 -3.227748 -0.041404
H -0.256280 -3.913470 -0.795993
N -0.330744 1.974301 -0.060513
O -1.093898 2.623585 -0.803807
O 0.516514 2.576662 0.634760
