27

Ir -0.182465 0.043725 -0.021987
N -2.310765 -0.027566 0.019415
C -2.999310 -1.117778 -0.409344
C -4.400148 -1.145776 -0.362978
N -5.139219 -0.128443 0.104973
C -4.448665 0.939269 0.534616
C -3.050738 1.007888 0.495551
H -2.406035 -1.972322 -0.765339
H -4.934422 -2.041825 -0.722837
H -5.023797 1.792926 0.933318
H -2.505537 1.895968 0.843772
P 2.047771 -0.015885 0.013633
C 5.174607 -0.117127 0.093612
C 4.460323 -1.330155 0.073210
C 3.064617 -1.423482 0.036261
C 3.155602 1.321512 0.045713
C 4.543993 1.140264 0.081057
H 6.274051 -0.154007 0.122995
H 5.034542 -2.271813 0.087870
H 2.557803 -2.401208 0.025885
H 2.729016 2.336459 0.045170
H 5.180164 2.041188 0.102856
C -0.176110 1.927311 -0.241397
N -0.170019 3.137202 -0.325164
H -0.141918 3.826827 -1.075133
C -0.160623 -1.999013 0.083784
N -0.153125 -3.180943 0.102126
