31

Ir -0.103927 0.124116 0.016054
N -2.198353 0.069218 0.007505
C -2.883760 -0.857839 -0.712785
C -4.284735 -0.882225 -0.703149
N -5.030937 -0.018875 0.003924
C -4.342466 0.888047 0.716723
C -2.944264 0.948334 0.728099
H -2.282125 -1.587842 -1.273330
H -4.815863 -1.642176 -1.302256
H -4.921964 1.610998 1.317061
H -2.396966 1.702969 1.310035
As 2.281266 0.019405 0.013813
C 3.258339 1.719517 -0.040341
C 3.072124 -0.969465 -1.478004
C 3.066303 -0.869215 1.570571
H 2.995759 2.252523 -0.974215
H 4.351132 1.544715 -0.003997
H 2.945368 2.338177 0.822193
H 2.811751 -0.457410 -2.423553
H 2.616244 -1.977735 -1.476365
H 4.172264 -1.034021 -1.367201
H 2.799286 -0.298092 2.479672
H 4.167168 -0.938764 1.470148
H 2.612397 -1.876567 1.631194
C -0.072915 1.966056 0.031023
N -0.051922 3.174898 0.137607
C 0.049169 4.429086 -0.526180
H 1.076689 4.841496 -0.423455
H -0.644660 5.168575 -0.074985
H -0.184352 4.347872 -1.610816
Br -0.031995 -2.428643 0.047111
