31

Ir 0.161059 -0.164168 0.034218
N -1.884182 -0.223060 0.030326
C -4.007312 -0.949633 -0.199160
C -2.681848 -1.288916 -0.373060
N -4.006936 0.333075 0.312251
C -2.715285 0.745008 0.442906
H -4.827486 0.883818 0.562226
H -4.928388 -1.507484 -0.391038
H -2.232027 -2.218634 -0.734828
H -2.409035 1.723638 0.823040
N 2.345766 -0.275224 0.074520
C 2.755851 -1.127543 1.225931
C 2.831269 -0.894938 -1.189992
C 3.000107 1.048158 0.225241
H 2.386781 -1.900322 -1.297095
H 3.943612 -0.969888 -1.176758
H 2.509036 -0.271470 -2.043999
H 2.649100 1.531519 1.154673
H 2.734685 1.691707 -0.632899
H 4.106978 0.927617 0.263799
H 2.314763 -2.133390 1.110341
H 2.376250 -0.677050 2.161335
H 3.867360 -1.202693 1.268461
C 0.127629 1.720799 0.077730
N 0.057938 2.931458 0.117271
C 0.121926 4.188240 -0.539248
H 1.115795 4.662962 -0.384673
H -0.637483 4.888015 -0.130934
H -0.047380 4.094007 -1.635226
C 0.177236 -2.205488 -0.174300
N 0.204334 -3.379898 -0.324013
