35

Ir -0.256274 -0.397106 0.065210
P -2.562732 -0.020966 -0.019438
C -3.136927 0.589296 -1.662214
C -3.152640 1.295518 1.129441
C -3.693215 -1.433746 0.332311
H -2.537497 1.484124 -1.920498
H -4.215868 0.846616 -1.651889
H -2.944906 -0.189225 -2.425736
H -2.563454 2.212525 0.932432
H -2.960919 0.978094 2.172798
H -4.233420 1.505059 0.994744
H -3.456193 -2.267191 -0.357148
H -4.756849 -1.142647 0.218125
H -3.516472 -1.787542 1.366779
C 1.797752 -0.535020 0.058046
C 3.999691 -0.121341 0.459183
C 3.933007 -1.101256 -0.496248
H 4.860608 0.369482 0.922967
H 4.724306 -1.639474 -1.026736
C 2.072307 -2.318222 -1.676205
H 1.947414 -3.308012 -1.193357
H 1.080756 -1.976058 -2.026223
H 2.767889 -2.403533 -2.532424
C 2.331757 1.232788 1.758783
H 2.407176 2.245414 1.312627
H 1.284349 1.062288 2.067299
H 3.000111 1.157360 2.638244
N 2.692552 0.206587 0.787819
N 2.585916 -1.337108 -0.729767
C -0.444734 -2.187876 0.446660
N -0.565012 -3.401142 0.594270
H -0.638361 -3.906615 1.480851
N -0.043362 1.606447 -0.317673
C 0.269848 2.762609 -0.403055
S 0.710854 4.314438 -0.482828
