39

Ir 0.284524 -0.157091 -0.003679
P -1.982608 -0.093292 0.068190
C -2.636892 1.011436 1.417014
C -2.888221 -1.690645 0.388706
C -3.066568 -2.615287 -0.818223
C -2.847351 0.563856 -1.447565
C -2.394083 1.950241 -1.905928
C -2.172068 0.592844 2.813775
H -2.266770 2.031240 1.181279
H -3.746170 1.033535 1.338933
H -2.290296 -2.203633 1.169186
H -3.870382 -1.417169 0.833555
H -2.649310 -0.182412 -2.244343
H -3.941183 0.539724 -1.244788
H -2.083566 -2.863989 -1.263465
H -3.540490 -3.566413 -0.499140
H -3.717025 -2.170474 -1.598352
H -2.570434 2.725881 -1.132500
H -1.310865 1.946538 -2.140342
H -2.943592 2.261873 -2.817844
H -2.553933 -0.410504 3.092733
H -1.064325 0.551206 2.853502
H -2.525412 1.310869 3.582114
N 2.432168 -0.244055 -0.014743
C 4.556982 -0.942514 -0.261799
C 3.232933 -1.294353 -0.429432
N 4.542751 0.338178 0.260885
C 3.246786 0.729541 0.398666
H 5.358466 0.896522 0.512399
H 5.486254 -1.483090 -0.464533
H 2.775561 -2.224447 -0.784541
H 2.926332 1.703173 0.784563
C 0.329222 1.672045 0.083382
N 0.407071 2.882904 0.245281
C 0.359056 4.094403 -0.513105
H 1.079046 4.837066 -0.110317
H -0.650589 4.556592 -0.447977
H 0.589767 3.932298 -1.589765
Cl 0.314528 -2.563388 -0.090755
