39

Ir 0.200486 -0.231456 -0.019733
P -2.088150 -0.137411 -0.004564
C -2.880589 0.485229 -1.568317
C -2.774549 0.988201 1.306124
C -2.292674 0.650277 2.718762
C -3.010174 -1.724259 0.313474
C -3.056331 -2.720763 -0.848245
C -2.408150 1.857296 -2.052035
H -2.661736 -0.286814 -2.335014
H -3.980219 0.468317 -1.397150
H -2.475680 2.020674 1.033061
H -3.882777 0.941209 1.225455
H -2.520534 -2.179913 1.199084
H -4.038503 -1.438899 0.625226
H -1.186227 0.692372 2.772035
H -2.703582 1.371213 3.454248
H -2.606412 -0.365596 3.035178
H -3.631813 -2.326619 -1.709411
H -2.044188 -2.991498 -1.205362
H -3.551149 -3.659047 -0.524875
H -2.611730 2.662013 -1.317518
H -1.317116 1.854550 -2.240987
H -2.924657 2.129302 -2.994954
N 2.348657 -0.117085 -0.034114
C 5.156049 0.082950 -0.092250
C 4.350727 1.081549 -0.657475
C 2.958922 0.950758 -0.608267
C 3.128858 -1.083722 0.512989
C 4.525282 -1.018445 0.505134
H 6.253556 0.160405 -0.116191
H 4.789050 1.967914 -1.138522
H 2.281292 1.717441 -1.010643
H 2.601883 -1.934878 0.966857
H 5.103960 -1.831204 0.967192
C 0.204613 -2.058227 -0.025012
O 0.217218 -3.235653 0.013797
N 0.217178 1.815574 0.058703
C -0.205222 2.931980 0.255034
O -0.610968 4.046395 0.432276
