53

Ir -1.239033 -0.274310 0.021264
P 1.111248 -0.046316 0.016059
C 1.289046 -1.576073 -2.319809
C 1.963561 -1.212673 -1.134767
C 1.921355 -0.332284 1.650829
C 1.294416 -1.187963 2.580169
C 1.905380 -1.458758 3.813899
C 3.140304 -0.872050 4.134462
C 3.764369 -0.010493 3.217372
C 3.159899 0.260384 1.980008
C 1.730456 1.610728 -0.490677
C 1.491521 2.704366 0.369964
C 1.848614 4.001037 -0.022238
C 2.456793 4.217337 -1.270074
C 2.706647 3.131916 -2.123595
C 2.341026 1.830970 -1.740713
C 3.257597 -1.714938 -0.890787
C 3.869118 -2.565704 -1.824617
C 3.198849 -2.916045 -3.008049
C 1.908648 -2.419203 -3.254462
H 0.267482 -1.198079 -2.490369
H 0.315477 -1.626485 2.331922
H 1.407412 -2.126910 4.533170
H 3.615068 -1.080328 5.105709
H 4.728550 0.458565 3.467225
H 3.647650 0.945351 1.269451
H 1.010113 2.540786 1.345721
H 1.632034 4.848427 0.644888
H 2.731480 5.237392 -1.579465
H 3.185771 3.295833 -3.101145
H 2.530466 0.986073 -2.419601
H 3.788013 -1.449259 0.035889
H 4.876909 -2.960367 -1.623132
H 3.681242 -3.585099 -3.737262
H 1.375160 -2.697255 -4.176343
P -3.570453 -0.324141 0.029835
C -4.323850 0.535689 -1.411637
C -4.304307 0.534079 1.482371
C -4.381627 -1.976370 0.033399
H -3.912273 1.562562 -1.449320
H -5.429434 0.569490 -1.330715
H -4.031059 0.008630 -2.340108
H -3.887983 1.559211 1.516137
H -4.001520 0.004331 2.406102
H -5.410664 0.571909 1.415239
H -4.063144 -2.540535 -0.864577
H -5.486136 -1.881386 0.040309
H -4.051986 -2.541846 0.926507
C -1.105249 -2.104341 0.011908
O -1.050160 -3.278569 0.001816
N -1.485069 1.747758 0.014678
C -1.548177 2.951402 -0.048407
O -1.616822 4.148238 -0.097066
