25

Ir -0.144619 0.075555 -0.009452
N -2.213366 0.016886 0.007002
C -4.378537 0.553851 0.328425
C -3.079942 0.998318 0.467447
N -4.282613 -0.708992 -0.224160
C -2.969301 -1.007130 -0.409976
H -5.059534 -1.327435 -0.455984
H -5.337103 1.019459 0.574926
H -2.704557 1.947593 0.860827
H -2.565984 -1.950787 -0.795249
N 1.903918 0.029984 0.012377
C 4.728025 -0.085720 0.055923
C 4.056021 0.920059 -0.655047
C 2.660026 0.945862 -0.656583
C 2.559131 -0.947416 0.703161
C 3.953373 -1.031899 0.741842
H 5.827243 -0.129645 0.074605
H 4.604176 1.690219 -1.216842
H 2.101979 1.716409 -1.204163
H 1.915084 -1.680108 1.207566
H 4.418685 -1.844968 1.317701
C -0.169307 1.893352 0.088244
N -0.210121 3.113529 0.253796
H -0.224841 3.808192 -0.499197
Cl -0.140066 -2.333068 -0.203534
