28

Ir 0.166095 0.171994 0.025819
N -1.888951 0.107601 -0.021841
C -4.041695 0.585647 -0.477359
C -2.736462 0.973393 -0.698671
N -3.966269 -0.524236 0.341772
C -2.660002 -0.787920 0.607777
H -4.753260 -1.069623 0.693090
H -4.991781 0.998564 -0.828183
H -2.348573 1.807742 -1.289957
H -2.261997 -1.633195 1.183330
N 2.352026 0.099575 0.035692
C 2.842263 -1.017777 0.892908
C 2.808402 -0.121159 -1.365570
C 2.955156 1.356620 0.551060
H 2.332368 -1.046301 -1.740647
H 3.919000 -0.211880 -1.396850
H 2.487904 0.734538 -1.987548
H 2.598270 1.543088 1.580479
H 2.659479 2.206737 -0.089001
H 4.065458 1.273473 0.552400
H 2.525358 -1.982401 0.462996
H 2.422148 -0.908814 1.909733
H 3.954092 -0.992957 0.944164
C 0.104753 2.003823 0.141634
O 0.008625 3.173966 0.195263
N 0.144546 -1.960400 -0.140812
O 0.799774 -2.519119 -1.044101
O -0.498617 -2.651858 0.674284
