32

Ir 0.014917 -0.517151 0.022554
P -2.275388 -0.255902 0.010139
C -5.409958 0.001230 -0.010822
C -4.633655 1.174568 -0.045119
C -3.234095 1.193050 -0.039698
C -3.462423 -1.528331 0.045792
C -4.841188 -1.284541 0.032647
H -6.506701 0.093371 -0.018324
H -5.159183 2.144105 -0.078348
H -2.683815 2.147004 -0.067981
H -3.089914 -2.564605 0.080275
H -5.520155 -2.153711 0.057674
C 2.072239 -0.576804 0.021366
C 4.272095 -0.296804 0.759253
C 4.283807 -0.621092 -0.747232
H 4.569479 0.756582 0.967498
H 4.743674 -1.610881 -0.971355
C 2.394410 -0.775664 -2.437628
H 2.787310 -1.707947 -2.900151
H 1.287033 -0.807558 -2.422792
H 2.720171 0.092170 -3.050492
C 2.394406 -0.225750 2.457617
H 2.532119 0.845759 2.724836
H 1.312016 -0.456992 2.499061
H 2.942825 -0.856488 3.188274
N 2.862518 -0.491514 1.115281
N 2.855423 -0.641669 -1.075495
H 4.817498 0.142611 -1.350738
H 4.931803 -0.960730 1.355492
C -0.139154 -2.341982 0.086511
O -0.232270 -3.510819 0.126224
I 0.433051 2.193736 -0.074078
