34

Ir 0.110169 -0.094034 -0.021165
As -2.254399 -0.245119 -0.034861
C -3.295524 1.420681 -0.022361
C -3.040971 -1.233088 1.462758
C -3.010351 -1.193105 -1.573450
H -3.056315 1.982241 0.901200
H -4.382027 1.209586 -0.060854
H -2.998390 2.031377 -0.896301
H -2.808204 -0.700541 2.404237
H -2.553960 -2.226594 1.482132
H -4.137366 -1.334187 1.340770
H -2.753298 -0.639519 -2.496210
H -4.109691 -1.291760 -1.478634
H -2.527940 -2.188509 -1.605515
N 2.222341 -0.168234 -0.022383
C 5.043049 -0.291743 -0.022119
C 4.274874 -1.296749 0.582682
C 2.879388 -1.207621 0.560767
C 2.969947 0.805214 -0.609094
C 4.366977 0.776308 -0.631195
H 6.142492 -0.339463 -0.021041
H 4.745807 -2.161275 1.072914
H 2.235904 -1.988211 0.992072
H 2.406195 1.629792 -1.066899
H 4.912164 1.593193 -1.126141
C 0.066841 1.807778 0.000064
N -0.001293 3.013649 -0.036178
C -0.189607 4.298339 0.525189
H -1.254789 4.609179 0.446127
H 0.415392 5.059732 -0.010796
H 0.096393 4.324865 1.600511
C 0.025275 -2.131884 -0.004549
C -0.070479 -3.371791 0.013752
H -0.124041 -4.452273 0.017817
