35

Ir 0.000599 -0.088922 0.001536
P -2.312766 -0.287171 0.003696
C -2.970120 -1.246329 1.433891
C -2.978514 -1.212514 -1.444831
C -3.326930 1.255439 0.025228
H -2.472157 -2.235827 1.430571
H -4.070483 -1.371374 1.368967
H -2.705350 -0.725608 2.374303
H -2.479482 -2.201216 -1.468247
H -2.720360 -0.669301 -2.374307
H -4.078307 -1.340435 -1.375945
H -3.070659 1.841703 0.929290
H -4.412812 1.030110 0.025412
H -3.075783 1.864136 -0.865301
P 2.314593 -0.279979 0.003681
C 2.983061 -1.203181 -1.444966
C 2.974714 -1.237462 1.433735
C 3.324207 1.265539 0.025460
H 2.487114 -2.193434 -1.468392
H 4.083254 -1.327674 -1.376192
H 2.723127 -0.660742 -2.374398
H 2.479542 -2.228360 1.430323
H 2.708531 -0.717596 2.374224
H 4.075425 -1.359384 1.368754
H 3.071365 1.873660 -0.864976
H 4.410733 1.043340 0.025694
H 3.066183 1.851006 0.929529
C -0.003320 1.822960 0.014582
N -0.006657 3.020518 0.030474
C -0.013144 4.422420 -0.039404
H -0.935369 4.841202 0.419138
H 0.032348 4.776274 -1.093361
H 0.857418 4.854136 0.500885
C 0.003688 -2.126556 -0.021864
N 0.005279 -3.310840 -0.035597
