29

Ir -0.241021 -0.387366 -0.005927
P 1.990026 -0.429274 0.019283
C 5.117643 -0.475644 0.089315
C 4.425938 -1.696690 0.183439
C 3.030356 -1.811450 0.163344
C 3.072052 0.926504 -0.075830
C 4.462182 0.763870 -0.032520
H 6.217682 -0.489599 0.114536
H 5.016359 -2.623269 0.282395
H 2.551850 -2.798889 0.252546
H 2.637869 1.934654 -0.171176
H 5.080945 1.674618 -0.098584
N -2.374348 -0.224521 0.027210
C -5.172215 0.049707 0.098547
C -4.340857 0.995291 0.714604
C -2.953336 0.829815 0.657372
C -3.179222 -1.141600 -0.566554
C -4.572853 -1.037421 -0.554631
H -6.267068 0.156836 0.126578
H -4.754396 1.867359 1.241117
H -2.260718 1.555807 1.105554
H -2.672916 -1.983099 -1.058955
H -5.174578 -1.808333 -1.057041
C -0.290035 -2.236938 -0.008838
N -0.314643 -3.456061 0.070217
H -0.295865 -4.161429 -0.669152
N -0.180160 1.648387 -0.054892
C 0.163516 2.799688 -0.125959
S 0.633382 4.336014 -0.215761
