27

Ir 0.317530 0.019536 -0.000006
N -1.705964 -0.033110 -0.000017
C -2.333575 -1.248810 0.000101
C -3.728181 -1.334944 0.000099
N -4.542641 -0.265408 -0.000008
C -3.915313 0.921930 -0.000098
C -2.524222 1.059596 -0.000110
H -1.659978 -2.119826 0.000175
H -4.200575 -2.332652 0.000117
H -4.542341 1.830652 -0.000132
H -2.045291 2.047426 -0.000209
N 2.466702 -0.262948 -0.000005
C 2.797086 -1.060083 1.215078
C 2.797097 -1.060145 -1.215058
C 3.263921 0.987992 -0.000056
H 2.174613 -1.972743 -1.206062
H 3.879260 -1.322915 -1.215028
H 2.559309 -0.464553 -2.115649
H 3.020281 1.584289 0.897880
H 3.020202 1.584258 -0.897989
H 4.351025 0.748869 -0.000096
H 2.174644 -1.972710 1.206092
H 2.559274 -0.464472 2.115648
H 3.879256 -1.322841 1.215091
C 0.389309 1.827090 0.000058
O 0.446638 3.005594 0.000125
F 0.311553 -1.999701 -0.000028
