25

Ir 0.100091 0.055364 0.009181
N -1.935811 0.031854 -0.003332
C -2.622343 -1.007337 -0.562665
C -4.021165 -1.019973 -0.580035
N -4.779694 -0.038488 -0.064342
C -4.095387 0.977849 0.486128
C -2.699180 1.030035 0.527333
H -2.016654 -1.830288 -0.965819
H -4.542444 -1.875717 -1.043015
H -4.678142 1.805341 0.927243
H -2.165696 1.873105 0.984511
N 2.156727 -0.028270 -0.015561
C 4.467385 0.520792 0.027951
O 4.226568 -0.900092 -0.200656
C 2.903284 -1.071411 -0.223161
C 3.057515 1.124094 0.210337
H 2.822444 1.926954 -0.515442
H 2.877468 1.526631 1.227508
H 5.009671 0.915299 -0.854855
H 5.117615 0.613992 0.919778
H 2.503631 -2.084045 -0.384070
C 0.128652 1.868625 -0.214800
N 0.154758 3.070536 -0.468678
H 0.158005 3.842442 0.203535
Cl 0.088830 -2.327147 0.366814
