35

Ir -0.198937 -0.096288 0.007631
N -2.338830 -0.182625 0.019168
C -4.523367 0.284148 -0.298573
C -3.232459 0.678403 -0.593096
N -4.393546 -0.831599 0.507024
C -3.065760 -1.084216 0.684223
H -5.155593 -1.374058 0.912882
H -5.496705 0.690854 -0.588773
H -2.882152 1.521016 -1.196689
H -2.641725 -1.917100 1.258150
C 1.780926 -0.129295 0.027400
C 4.006910 0.135396 0.734636
C 3.983833 -0.669789 -0.573809
H 4.409774 1.167298 0.588464
H 4.224581 -1.747051 -0.406741
C 2.132310 -1.092321 -2.241887
H 2.130388 -2.204329 -2.206598
H 1.088995 -0.757367 -2.401963
H 2.778572 -0.747349 -3.077413
C 2.145913 0.789767 2.315798
H 2.397895 1.874908 2.354840
H 1.045013 0.675019 2.367921
H 2.616687 0.287263 3.187896
N 2.589599 0.184202 1.083608
N 2.593284 -0.520344 -0.997115
H 4.686725 -0.281414 -1.340155
H 4.605852 -0.347830 1.534508
C -0.219090 1.762383 -0.019105
N -0.246951 2.981130 0.043845
C -0.095837 4.137236 -0.780072
H 0.748541 4.764822 -0.421098
H -1.005917 4.773500 -0.732323
H 0.094001 3.881928 -1.847482
S -0.124408 -2.521199 0.119748
H -1.241417 -2.792366 -0.617757
