27

Ir 0.038581 -0.305913 0.020753
P 2.318063 -0.245859 -0.005923
C 3.062747 0.683010 1.399115
C 3.038460 0.565365 -1.494228
C 3.194073 -1.866464 0.051870
H 2.633084 1.703485 1.395296
H 4.167220 0.726628 1.308794
H 2.781214 0.185919 2.347389
H 2.612401 1.584982 -1.563215
H 2.736935 -0.003244 -2.394979
H 4.144681 0.610672 -1.428699
H 2.905050 -2.408318 0.973053
H 4.292757 -1.720214 0.036907
H 2.890473 -2.480185 -0.818127
N -2.081393 -0.183934 0.031233
C -4.388483 -0.652515 -0.285954
O -4.155331 0.628611 0.373440
C -2.830667 0.772137 0.478632
C -2.972349 -1.240823 -0.489003
H -2.725453 -1.440030 -1.550593
H -2.799151 -2.179750 0.075384
H -4.927851 -0.449395 -1.232778
H -5.038596 -1.259478 0.374583
H -2.446822 1.705411 0.917491
C 0.030844 -2.123549 0.102818
O 0.041261 -3.299839 0.157640
Br 0.105911 2.242889 -0.085611
