41

Ir 0.032349 -0.051093 -0.028300
C 2.087101 -0.200624 -0.107198
C 4.276702 0.100909 -0.691769
C 4.221564 -0.960742 0.173047
H 5.125792 0.566487 -1.201267
H 5.013578 -1.608009 0.561882
C 2.384450 -2.180518 1.387572
H 1.505468 -1.789927 1.933629
H 2.048822 -3.048956 0.786823
H 3.176629 -2.479325 2.100379
C 2.579038 1.658966 -1.699685
H 1.477347 1.616996 -1.802723
H 2.866341 2.629361 -1.244722
H 3.053365 1.565251 -2.696438
N 2.972018 0.547163 -0.851403
N 2.888917 -1.124153 0.520696
C -2.019334 -0.114791 -0.073997
C -4.251103 0.270282 -0.713891
C -4.194994 -0.946053 0.224266
H -4.735975 1.154886 -0.234961
H -4.378709 -1.903714 -0.317765
C -2.323036 -1.893111 1.633176
H -2.274084 -2.900844 1.164444
H -1.295349 -1.604488 1.927467
H -2.977578 -1.931072 2.529653
C -2.405924 1.555471 -1.875877
H -2.751181 2.566671 -1.557893
H -1.298073 1.539109 -1.901047
H -2.801317 1.355190 -2.894977
N -2.831811 0.533064 -0.952951
N -2.812517 -0.898359 0.704631
H -4.919816 -0.887610 1.062834
H -4.790397 0.065783 -1.662322
C 0.086964 1.710337 0.684229
N 0.125774 2.842858 1.098698
C 0.137779 3.856413 2.082916
H 1.065396 4.465242 2.016027
H 0.079085 3.434235 3.111267
H -0.719375 4.551479 1.949171
C -0.038588 -1.990244 -0.698148
N -0.085891 -3.132049 -1.005131
