25

Ir -0.000213 -0.226164 0.047643
N 2.051365 -0.141081 0.031361
C 4.161448 0.616987 0.248592
C 2.831632 0.932971 0.436180
N 4.175795 -0.662236 -0.272708
C 2.890316 -1.093921 -0.395165
H 5.002707 -1.198259 -0.534169
H 5.076209 1.185719 0.438708
H 2.368255 1.846509 0.818014
H 2.591564 -2.077578 -0.771075
N -2.053846 -0.195377 0.027231
C -4.216778 -0.762885 -0.259404
C -2.915556 -1.210333 -0.364091
N -4.129003 0.535896 0.202130
C -2.815926 0.851822 0.368925
H -4.909488 1.165548 0.386673
H -5.172677 -1.249188 -0.474208
H -2.533397 -2.182778 -0.688367
H -2.431994 1.817476 0.710266
C 0.037585 -2.049822 0.074338
N 0.085344 -3.279937 -0.040276
H 0.074397 -3.917859 0.762974
N -0.037641 1.829722 0.008045
C -0.035119 3.016150 -0.220017
O -0.039861 4.201291 -0.417994
