41

Ir 0.052681 -0.214320 -0.106656
C 2.105335 -0.034102 -0.031280
C 4.370862 -0.432303 0.469417
C 4.242175 0.923494 -0.244429
H 4.929881 -0.371033 1.426473
H 4.920578 1.025213 -1.117102
C 2.295634 2.016863 -1.428125
H 2.887371 2.162862 -2.357007
H 1.249767 1.766198 -1.688020
H 2.297062 2.965349 -0.846609
C 2.621402 -1.984936 1.428193
H 3.075318 -1.965327 2.442305
H 1.518149 -2.013448 1.519620
H 2.969728 -2.906333 0.906481
N 2.969502 -0.793704 0.693838
N 2.837394 0.920663 -0.659254
H 4.439436 1.782874 0.438745
H 4.872701 -1.201183 -0.164924
C -2.010975 -0.224813 -0.101660
C -4.242158 -0.845160 0.325098
C -4.220596 0.547336 -0.324601
H -4.657413 -1.626295 -0.355300
H -4.501928 1.354578 0.391635
C -2.368434 1.860217 -1.424772
H -2.465636 2.778163 -0.803083
H -1.302887 1.721795 -1.685769
H -2.965128 1.989441 -2.352878
C -2.384091 -2.272215 1.270262
H -2.620482 -3.199134 0.698016
H -1.287831 -2.199816 1.407674
H -2.876847 -2.340124 2.263889
N -2.819124 -1.088461 0.570913
N -2.813761 0.685259 -0.710315
H -4.889945 0.630379 -1.206003
H -4.825323 -0.878261 1.268949
C 0.141012 -1.834305 -0.971883
N 0.188481 -2.866523 -1.640102
H 0.216930 -3.817466 -1.262131
N -0.070765 1.601808 0.864010
C -0.508314 2.637283 1.302346
O -0.916645 3.685849 1.730316
