36

Ir 0.043598 -0.061496 0.001452
As -2.390994 -0.112026 0.078555
C -3.237980 1.498286 0.815470
C -3.274285 -1.536056 1.112573
C -3.328816 -0.255873 -1.643238
H -2.940763 1.598815 1.876732
H -4.341817 1.460542 0.730396
H -2.836737 2.365969 0.256452
H -2.928188 -1.487254 2.163317
H -2.995826 -2.520373 0.688172
H -4.375146 -1.419772 1.080200
H -2.994796 0.586040 -2.279691
H -4.428656 -0.218405 -1.514438
H -3.034580 -1.204039 -2.132083
C 2.071332 -0.038364 0.007854
C 4.280196 -0.800033 -0.177104
C 4.289736 0.644904 0.347320
H 4.576159 -1.536883 0.606721
H 4.676097 1.368625 -0.409651
C 2.423332 2.116881 1.216069
H 2.580434 2.991933 0.545962
H 1.340295 2.023523 1.424138
H 2.972835 2.290902 2.165615
C 2.426985 -2.222833 -1.141074
H 2.526622 -3.076726 -0.436456
H 1.356479 -2.112699 -1.395320
H 3.018790 -2.432198 -2.058005
N 2.873830 -0.986717 -0.539006
N 2.869175 0.886141 0.604789
H 4.893099 0.771576 1.270241
H 4.945970 -0.953233 -1.051970
C -0.077190 1.537282 -0.902576
N -0.197517 2.673427 -1.381970
H -0.251701 2.822489 -2.397078
O 0.265132 -1.801047 1.029689
H -0.592137 -2.153523 1.326700
