34

Ir -0.039563 0.242155 0.014959
P 2.129925 0.917229 0.040885
C 3.142888 0.293619 -1.367361
C 3.074807 0.328617 1.509974
C 2.453472 2.732195 0.024433
H 3.151601 -0.813948 -1.338745
H 4.183470 0.671965 -1.302436
H 2.683108 0.620033 -2.319801
H 3.065607 -0.779269 1.515726
H 2.580055 0.692053 2.430911
H 4.123235 0.689231 1.477131
H 2.030897 3.167147 -0.902173
H 3.541044 2.941651 0.068658
H 1.946998 3.199902 0.890771
N -2.010580 -0.587162 0.014731
C -4.579233 -1.741697 0.025162
C -3.499753 -2.391374 -0.590072
C -2.237214 -1.789652 -0.574664
C -3.056350 0.041286 0.610816
C -4.344565 -0.501117 0.637118
H -5.582996 -2.192830 0.029321
H -3.622495 -3.366382 -1.083483
H -1.356040 -2.270551 -1.023082
H -2.832596 1.013190 1.073277
H -5.151390 0.052786 1.138626
C -0.661024 1.988161 0.026476
N -1.062394 3.129377 0.117284
C -1.394461 4.343461 -0.543085
H -0.564888 5.078091 -0.448679
H -2.293000 4.807337 -0.085378
H -1.596110 4.188091 -1.626260
N 0.711726 -1.663252 -0.011299
C 1.493128 -2.578300 0.004269
S 2.560596 -3.787923 0.019820
