31

Ir -0.000029 0.064031 -0.000028
N 2.174449 -0.060352 0.000036
C 2.844483 1.266572 0.000269
C 2.615315 -0.801343 1.216418
C 2.615507 -0.801008 -1.216480
H 2.267222 -0.259101 2.114435
H 3.726525 -0.877997 1.231149
H 2.169454 -1.811494 1.212805
H 2.267477 -0.258558 -2.114396
H 2.169692 -1.811182 -1.213188
H 3.726722 -0.877593 -1.231097
H 2.545444 1.834592 0.899292
H 2.545654 1.834800 -0.898693
H 3.949746 1.134726 0.000379
N -2.174461 -0.060208 0.000029
C -2.844458 1.266749 0.000253
C -2.615473 -0.800866 -1.216494
C -2.615422 -0.801196 1.216395
H -2.267454 -0.258395 -2.114402
H -3.726686 -0.877506 -1.231145
H -2.169618 -1.811026 -1.213190
H -2.267276 -0.258999 2.114418
H -2.169624 -1.811376 1.212765
H -3.726634 -0.877748 1.231090
H -2.545623 1.834960 -0.898716
H -2.545387 1.834760 0.899271
H -3.949722 1.134931 0.000367
C 0.000173 1.924456 -0.000009
O 0.000332 3.099248 -0.000087
C -0.000051 -1.995000 -0.000017
N -0.000098 -3.178347 -0.000103
