51

Ir 1.263608 -0.047879 0.036621
P -1.004402 0.044303 0.015689
C -1.787368 -2.473002 1.002491
C -1.846831 -1.601514 -0.107195
C -1.729199 0.986940 -1.403818
C -0.953607 1.113581 -2.574188
C -1.476672 1.768202 -3.699815
C -2.771967 2.309224 -3.662396
C -3.543768 2.195094 -2.494146
C -3.026670 1.536334 -1.368032
C -1.822711 0.784713 1.508880
C -1.140792 1.774054 2.247214
C -1.753398 2.369109 3.360848
C -3.044957 1.982488 3.753757
C -3.727181 0.994751 3.025569
C -3.120968 0.397340 1.909000
C -2.453648 -2.045030 -1.296960
C -2.992848 -3.340464 -1.376482
C -2.936340 -4.200199 -0.269440
C -2.333769 -3.761418 0.923078
H -1.307506 -2.134714 1.934780
H 0.070038 0.704682 -2.576268
H -0.862734 1.864926 -4.608586
H -3.179530 2.829038 -4.543467
H -4.555853 2.627090 -2.455999
H -3.634661 1.461389 -0.453982
H -0.130298 2.077924 1.933219
H -1.211107 3.140948 3.928784
H -3.519859 2.447975 4.631448
H -4.738605 0.682195 3.328648
H -3.660890 -0.384157 1.352773
H -2.502943 -1.375843 -2.169163
H -3.462807 -3.676880 -2.313568
H -3.363753 -5.212842 -0.332841
H -2.291508 -4.428321 1.798631
N 3.381152 0.004989 0.072942
C 5.682533 -0.580399 0.029637
O 5.467415 0.856886 0.162674
C 4.143533 1.049493 0.145665
C 4.259652 -1.182883 0.053043
H 4.054071 -1.798559 0.952021
H 4.025446 -1.805441 -0.832207
H 6.327063 -0.906538 0.869348
H 6.222255 -0.751903 -0.924006
H 3.761796 2.081898 0.187985
C 1.256995 -1.934946 -0.007050
N 1.282649 -3.138505 -0.201966
H 1.018979 -3.930351 0.384881
C 1.286635 2.000316 -0.069991
C 1.332198 3.237399 -0.173898
H 1.331579 4.314060 -0.280419
