34

Ir -0.312385 -0.155265 -0.028526
N -2.502794 -0.282209 -0.039963
C -3.171896 1.041536 -0.029740
C -2.924415 -1.008685 -1.269140
C -2.948787 -1.042552 1.159008
H -2.577184 -0.447751 -2.156317
H -4.035203 -1.103638 -1.295299
H -2.453952 -2.008207 -1.274938
H -2.624199 -0.503924 2.068354
H -2.472560 -2.039459 1.148726
H -4.059275 -1.143434 1.158144
H -2.856661 1.623753 -0.914209
H -2.881950 1.595429 0.881409
H -4.278621 0.913306 -0.045569
N 1.721598 -0.173588 -0.025233
C 4.552802 -0.240507 -0.023713
C 3.804095 -1.145231 0.743347
C 2.408483 -1.088331 0.721620
C 2.453500 0.701504 -0.775222
C 3.849735 0.696847 -0.795843
H 5.652695 -0.266063 -0.022174
H 4.291895 -1.907861 1.367819
H 1.786791 -1.791289 1.291226
H 1.872560 1.419289 -1.369026
H 4.374091 1.430833 -1.425089
C -0.298576 1.742869 -0.001133
N -0.232083 2.950864 -0.041776
C -0.182697 4.227726 0.569450
H -1.094492 4.816206 0.328222
H 0.687089 4.809936 0.196924
H -0.100089 4.155926 1.677136
C -0.280201 -2.199319 -0.034341
C -0.242845 -3.442468 -0.034768
H -0.199540 -4.523481 -0.047209
