51

Ir 1.219758 -0.152072 0.018143
P -1.065006 -0.041689 0.002861
C -1.430234 -2.324130 1.587513
C -1.888075 -1.642318 0.437803
C -1.801325 0.428829 -1.622176
C -1.030114 0.242465 -2.786391
C -1.566861 0.561519 -4.042684
C -2.870481 1.073738 -4.143261
C -3.639275 1.269890 -2.983510
C -3.107819 0.951469 -1.724547
C -1.857052 1.168190 1.169771
C -1.656636 2.550927 0.954524
C -2.239651 3.488722 1.817673
C -3.025587 3.067542 2.902994
C -3.230972 1.696967 3.118348
C -2.653137 0.750506 2.256184
C -2.918832 -2.210661 -0.333915
C -3.484948 -3.441298 0.040046
C -3.035582 -4.108259 1.189730
C -2.007318 -3.544898 1.965550
H -0.605646 -1.891168 2.176956
H -0.001105 -0.138782 -2.682699
H -0.957611 0.419820 -4.948517
H -3.287517 1.331086 -5.129299
H -4.658005 1.680678 -3.058534
H -3.706967 1.118474 -0.815876
H -1.041029 2.900098 0.111858
H -2.070198 4.561636 1.639264
H -3.478124 3.808496 3.580019
H -3.849874 1.354586 3.962177
H -2.834930 -0.319275 2.432932
H -3.277226 -1.696122 -1.237756
H -4.284473 -3.880749 -0.576149
H -3.484060 -5.070498 1.481429
H -1.649543 -4.062193 2.869514
N 3.329624 -0.100141 0.057470
C 5.633075 -0.555512 -0.269663
O 5.398989 0.540555 0.667049
C 4.074438 0.679678 0.774920
C 4.218216 -0.970737 -0.737111
H 3.975174 -2.033304 -0.537107
H 4.037284 -0.786365 -1.815242
H 6.175487 -1.353287 0.276841
H 6.281708 -0.172162 -1.081519
H 3.672750 1.467736 1.433048
C 1.196987 -2.005220 -0.132372
N 1.217666 -3.196774 -0.397470
H 1.069649 -4.004556 0.209798
N 1.323492 1.967705 0.030166
O 0.916463 2.599201 -0.961475
O 1.792002 2.565332 1.019577
