35

Ir -0.226661 0.052427 0.024088
P -2.564456 -0.122176 0.040366
C -3.231652 -0.216530 1.753825
C -3.108859 -1.722575 -0.688017
C -3.598986 1.153126 -0.793495
H -2.643418 -1.010278 2.255774
H -4.313830 -0.459764 1.771577
H -3.049618 0.743231 2.274807
H -2.488838 -2.495907 -0.191571
H -2.884359 -1.728851 -1.772129
H -4.188374 -1.915952 -0.522955
H -3.388360 2.141662 -0.340331
H -4.681079 0.927330 -0.705880
H -3.315769 1.202401 -1.863154
C 1.810139 -0.110538 0.066539
C 3.948894 -0.946646 -0.432338
C 4.098678 0.362163 0.356884
H 4.544565 -1.784511 -0.013431
H 4.752805 1.104335 -0.147169
C 2.415928 2.071767 1.124431
H 2.756946 2.952337 0.538369
H 1.321537 2.133655 1.272522
H 2.917115 2.095203 2.118371
C 1.941326 -2.362087 -1.005782
H 2.518465 -3.270107 -0.732187
H 0.893780 -2.477255 -0.663998
H 1.969858 -2.247080 -2.113497
N 2.511048 -1.210169 -0.333908
N 2.715290 0.835793 0.437929
H 4.507741 0.198439 1.382174
H 4.241891 -0.829105 -1.502592
C -0.192304 1.672297 -0.827443
O -0.181703 2.726702 -1.356878
O -0.442736 -1.763365 0.976234
H 0.360823 -1.975912 1.484426
