27

Ir -0.115190 0.066748 0.002795
N -2.167614 0.015605 0.004162
C -4.424918 -0.729945 -0.069417
O -4.315627 0.725180 -0.020867
C -3.008650 1.006044 -0.013541
C -2.970789 -1.232343 0.045820
H -2.655566 -1.899439 -0.777931
H -2.747214 -1.765241 0.990257
H -4.912301 -0.995549 -1.029805
H -5.080310 -1.047715 0.764899
H -2.731151 2.069209 -0.022732
N 1.945748 -0.004506 -0.010093
C 4.769917 -0.131253 -0.038911
C 3.994023 -1.110367 -0.675106
C 2.599858 -1.020734 -0.642104
C 2.703485 0.943567 0.610953
C 4.099402 0.912638 0.616057
H 5.869014 -0.179193 -0.052547
H 4.457965 -1.954920 -1.204844
H 1.956652 -1.776888 -1.110926
H 2.150043 1.745865 1.116960
H 4.647651 1.710747 1.137042
C -0.111514 1.931613 -0.195290
O -0.113360 3.102155 -0.293970
C -0.103069 -1.959442 0.266173
C -0.061195 -3.190084 0.422560
H -0.019476 -4.261045 0.571439
