27

Ir 0.364172 -0.400311 -0.025380
N 2.489610 -0.280213 0.017176
C 4.675096 -0.782389 0.204391
C 3.397698 -1.303103 0.233182
N 4.519296 0.570358 -0.033496
C 3.194203 0.844772 -0.141989
H 5.268191 1.259205 -0.112510
H 5.655991 -1.248863 0.334061
H 3.066882 -2.333403 0.396467
H 2.761823 1.835358 -0.318345
P -1.860357 -0.404810 -0.000693
C -4.990538 -0.389992 0.067600
C -4.323095 -1.627318 0.112346
C -2.930123 -1.769632 0.088285
C -2.916286 0.974853 -0.041487
C -4.309384 0.839716 -0.004059
H -6.090649 -0.382708 0.092370
H -4.932152 -2.545186 0.173185
H -2.472064 -2.769634 0.136101
H -2.459867 1.975985 -0.093988
H -4.909520 1.764868 -0.032321
C 0.398177 -2.244444 -0.108600
N 0.436934 -3.467266 -0.075657
H 0.425728 -4.121988 -0.861596
N 0.351869 1.641312 0.006777
C 0.075762 2.812024 0.014016
S -0.291455 4.380386 0.019096
