25

Ir -0.132645 0.293352 0.000148
N -2.201794 0.268831 0.015294
C -4.349270 0.826624 0.413176
C -3.037751 1.218461 0.585997
N -4.292464 -0.371340 -0.272850
C -2.988821 -0.682384 -0.502901
H -5.087717 -0.941188 -0.560362
H -5.292713 1.288370 0.718243
H -2.633829 2.111008 1.072629
H -2.624211 -1.592348 -0.992189
N 1.918005 0.247524 0.025981
C 4.739941 0.141730 0.058930
C 4.059999 1.030297 -0.787706
C 2.663683 1.054879 -0.778688
C 2.579930 -0.614626 0.848724
C 3.975036 -0.691378 0.887360
H 5.839391 0.100922 0.072463
H 4.601808 1.707420 -1.463772
H 2.095868 1.731707 -1.430766
H 1.944146 -1.257915 1.471491
H 4.447925 -1.408438 1.573806
C -0.141058 2.116313 0.036828
N -0.167206 3.339335 0.169636
H -0.171666 4.021315 -0.594637
Br -0.134608 -2.261112 -0.114716
