35

Ir -0.025499 -0.239443 -0.030285
As 2.407182 0.020165 0.021252
C 3.124885 0.749798 1.693806
C 3.100787 1.312898 -1.280774
C 3.557960 -1.537998 -0.288879
H 2.548208 1.666449 1.921910
H 4.203894 0.982843 1.603273
H 2.962064 0.016196 2.506142
H 2.548120 2.260084 -1.131430
H 2.897309 0.937922 -2.301830
H 4.187854 1.477624 -1.146177
H 3.389787 -2.270308 0.524096
H 4.626660 -1.249616 -0.316415
H 3.265615 -2.007778 -1.247478
C -2.058420 -0.240338 -0.051233
C -4.219601 0.319436 -0.505356
C -4.242694 -0.664402 0.447237
H -5.034332 0.864696 -0.991322
H -5.081364 -1.150634 0.954645
C -2.498292 -1.997137 1.674270
H -2.627360 -3.017891 1.259362
H -1.426355 -1.825201 1.889991
H -3.089618 -1.901429 2.605630
C -2.429811 1.558661 -1.759145
H -2.494369 2.577973 -1.328094
H -1.373260 1.340006 -2.000675
H -3.046873 1.499566 -2.676791
N -2.885454 0.561606 -0.799477
N -2.919961 -0.990076 0.713889
C 0.068697 -2.004651 -0.533328
N 0.142435 -3.143234 -0.991479
H 0.197760 -4.010893 -0.452156
N -0.079366 1.757166 0.489165
C -0.509347 2.878655 0.622504
O -0.911987 4.004287 0.744829
