27

Ir -0.098567 0.102687 0.000062
N -2.184581 -0.058016 0.000079
C -2.737997 -1.300896 -0.000043
C -4.128297 -1.461173 -0.000157
N -4.990119 -0.430356 -0.000176
C -4.429251 0.789691 -0.000045
C -3.044582 0.994197 0.000098
H -2.012374 -2.131868 -0.000041
H -4.554954 -2.479260 -0.000263
H -5.105636 1.662210 -0.000034
H -2.606651 2.002237 0.000221
As 2.270510 -0.179973 -0.000050
C 3.464903 1.365560 -0.000088
C 2.855071 -1.256724 -1.521211
C 2.855222 -1.256764 1.521028
H 3.255832 1.976625 -0.898719
H 4.524226 1.043770 -0.000016
H 3.255739 1.976713 0.898461
H 2.701839 -0.682614 -2.454179
H 2.196314 -2.145898 -1.528732
H 3.917449 -1.552258 -1.419904
H 2.702064 -0.682661 2.454015
H 3.917590 -1.552285 1.419620
H 2.196426 -2.145909 1.528596
C -0.045164 1.914178 -0.000027
O 0.011424 3.091980 -0.000059
F -0.036991 -1.922474 0.000187
