42

Ir 0.136791 -0.033245 -0.027045
P -2.211623 -0.089864 -0.034119
C -2.977388 0.537056 1.541460
C -3.000192 -1.760930 -0.242612
C -2.738789 -2.424132 -1.598606
C -3.060335 0.937259 -1.334618
C -2.606764 2.398377 -1.371121
C -2.496706 -0.217235 2.783756
H -2.683177 1.606014 1.604632
H -4.084148 0.504945 1.438664
H -2.574334 -2.384843 0.570831
H -4.087842 -1.647822 -0.034254
H -2.829430 0.441129 -2.300461
H -4.159038 0.850037 -1.181096
H -1.646330 -2.512109 -1.758799
H -3.190105 -3.437440 -1.625984
H -3.181464 -1.847287 -2.436403
H -2.828686 2.930928 -0.424332
H -1.511827 2.464903 -1.528598
H -3.113840 2.947597 -2.190708
H -2.831294 -1.274690 2.780704
H -1.387732 -0.220445 2.826560
H -2.885274 0.250607 3.711729
C 2.191745 -0.088129 -0.056585
C 4.340043 -0.788478 0.223075
C 4.385218 0.473191 -0.312007
H 5.143508 -1.479227 0.496430
H 5.235263 1.098683 -0.600844
C 2.665945 2.157272 -1.054413
H 1.754838 1.997382 -1.660081
H 2.422876 2.891854 -0.261962
H 3.482722 2.543873 -1.692511
C 2.500615 -2.373094 0.910656
H 2.317019 -2.278846 2.000140
H 1.556181 -2.611902 0.382405
H 3.251414 -3.165990 0.732028
N 3.000107 -1.113961 0.365123
N 3.069590 0.879991 -0.480048
C 0.099390 1.599001 0.767041
N 0.065154 2.748815 1.223155
H 0.036768 2.948144 2.228418
F 0.186077 -1.890283 -0.864006
