39

Ir 0.006373 0.096090 -0.010710
P -2.339800 -0.073995 0.003069
C -3.093585 -0.641781 1.604991
C -2.991387 -1.261751 -1.260537
C -2.577904 -0.911458 -2.691718
C -3.291267 1.486162 -0.357329
C -3.304505 2.527507 0.764779
C -2.690316 -2.038401 2.078757
H -2.792753 0.120935 2.353112
H -4.196646 -0.556327 1.482070
H -2.569119 -2.246080 -0.972099
H -4.096200 -1.310221 -1.142872
H -2.834781 1.908612 -1.276581
H -4.327004 1.179721 -0.622472
H -1.472938 -0.860230 -2.771990
H -2.939446 -1.682889 -3.401511
H -2.989993 0.063913 -3.022369
H -3.848676 2.165155 1.659614
H -2.281786 2.812309 1.079641
H -3.812127 3.452325 0.423233
H -3.015987 -2.827048 1.371581
H -1.591455 -2.126970 2.179230
H -3.155512 -2.255172 3.062029
P 2.289644 0.020980 0.018444
C 5.426720 -0.071552 0.090071
C 4.714508 -1.285757 0.086917
C 3.318530 -1.377853 0.055371
C 3.403265 1.357198 0.028463
C 4.792513 1.183843 0.061543
H 6.526530 -0.105584 0.115587
H 5.291739 -2.225724 0.110273
H 2.811188 -2.355177 0.052531
H 2.976335 2.372539 0.006877
H 5.425913 2.087062 0.065394
C 0.011577 1.976830 -0.073097
O 0.045676 3.144642 -0.156142
C 0.022995 -1.944703 -0.062151
C 0.046244 -3.183078 -0.128615
H 0.064635 -4.263196 -0.184845
