38

Ir 0.325097 -0.017224 0.002219
C -1.656131 -0.032629 0.028310
C -3.822364 0.014139 0.738967
C -3.829342 -0.303914 -0.594213
H -4.644429 0.134262 1.451007
H -4.659406 -0.523568 -1.272459
C -2.059389 -0.676944 -2.348123
H -1.035305 -0.272188 -2.469307
H -2.003860 -1.777797 -2.446697
H -2.743048 -0.239532 -3.101829
C -2.025632 0.502156 2.438650
H -0.917295 0.479773 2.404900
H -2.370595 1.511677 2.742079
H -2.390038 -0.247279 3.169173
N -2.492783 0.176578 1.101823
N -2.507358 -0.318046 -1.011558
N 2.591492 -0.169367 -0.022471
C 3.023004 -1.265414 -0.924255
C 3.222932 1.087330 -0.478660
C 3.025015 -0.468564 1.364208
H 2.871349 1.329691 -1.499183
H 4.333853 0.985953 -0.487355
H 2.941678 1.916343 0.195782
H 2.523221 -1.400859 1.685609
H 2.714953 0.361081 2.026932
H 4.134100 -0.587054 1.412083
H 2.628290 -1.079101 -1.940901
H 2.627593 -2.224438 -0.547609
H 4.136394 -1.318925 -0.965224
C 0.327816 1.849249 -0.038636
N 0.292418 3.056959 0.019905
C 0.110911 4.335743 -0.561651
H 1.055497 4.920703 -0.531769
H -0.650261 4.919626 -0.001046
H -0.219866 4.267835 -1.622178
N 0.191671 -2.145070 0.104600
O -0.647351 -2.755061 -0.582775
O 0.923066 -2.780468 0.899455
