28

Ir 0.000058 -0.157490 0.037456
N 2.056979 -0.202221 0.061751
C 4.223473 0.378654 0.327083
C 2.920831 0.822655 0.426652
N 4.137611 -0.930766 -0.104024
C 2.823655 -1.254424 -0.256957
H 4.918691 -1.562365 -0.276936
H 5.178500 0.873497 0.526000
H 2.539219 1.799654 0.735774
H 2.432551 -2.230380 -0.565794
N -2.056819 -0.202004 0.061766
C -4.223489 0.377833 0.327546
C -2.920977 0.822220 0.427450
N -4.137126 -0.931330 -0.104236
C -2.823098 -1.254289 -0.257817
H -4.918023 -1.562863 -0.278235
H -5.178682 0.872177 0.526894
H -2.539649 1.799132 0.737248
H -2.431517 -2.229866 -0.567243
C -0.000203 1.729776 0.060540
N -0.000231 2.946917 0.079457
C -0.000816 4.133219 -0.707750
H 0.888540 4.758466 -0.476944
H -0.895159 4.753565 -0.482952
H 0.003355 3.913568 -1.798803
C 0.000027 -2.201206 -0.151897
C -0.000185 -3.438713 -0.285531
H -0.000492 -4.516405 -0.381992
