30

Ir 0.000162 -0.053982 0.011372
P -2.270986 -0.232566 -0.017221
C -5.344917 -0.783648 -0.068410
C -4.900518 0.547459 -0.168467
C -3.551596 0.929290 -0.157732
C -3.075684 -1.766127 0.086970
C -4.468564 -1.880686 0.052613
H -6.428368 -0.976538 -0.086962
H -5.660270 1.341739 -0.262623
H -3.273970 1.991495 -0.244413
H -2.409718 -2.638275 0.179402
H -4.907696 -2.890289 0.123817
P 2.270853 -0.232160 -0.017228
C 5.344614 -0.783964 -0.068463
C 4.468025 -1.880892 0.051626
C 3.075170 -1.766015 0.086001
C 3.551707 0.929560 -0.156793
C 4.900509 0.547337 -0.167553
H 6.428028 -0.977053 -0.087062
H 4.906921 -2.890660 0.122067
H 2.408754 -2.637897 0.177819
H 3.274341 1.991884 -0.242810
H 5.660505 1.341485 -0.260871
C 0.000198 1.798585 -0.086808
N 0.000258 3.000839 -0.208892
C -0.000474 4.293944 0.377075
H -0.897777 4.866427 0.059305
H 0.887298 4.873567 0.045911
H 0.007926 4.248088 1.488690
F 0.000101 -2.070159 0.156746
