28

Ir 0.286695 0.302599 0.000060
P 2.633664 0.279655 -0.000040
C 3.361036 -0.580892 -1.452323
C 3.361324 -0.581178 1.451972
C 3.463384 1.923461 0.000088
H 2.940390 -1.604819 -1.482392
H 4.467017 -0.616528 -1.379744
H 3.060033 -0.048944 -2.375344
H 2.941450 -1.605437 1.481410
H 3.059796 -0.049952 2.375230
H 4.467356 -0.616008 1.379594
H 3.149603 2.493007 -0.896092
H 4.566159 1.810174 -0.000450
H 3.150400 2.492409 0.896924
P -2.008925 0.161285 0.000109
C -5.141360 0.021005 -0.000118
C -4.411521 -1.182494 0.000604
C -3.013738 -1.254711 0.000790
C -3.139630 1.481191 -0.000696
C -4.526529 1.286174 -0.000743
H -6.240774 -0.029929 -0.000216
H -4.974376 -2.131291 0.001060
H -2.494136 -2.225741 0.001289
H -2.727678 2.502900 -0.001207
H -5.173485 2.179578 -0.001304
C 0.228918 2.130734 0.000262
O 0.200091 3.304197 0.000474
Br 0.447704 -2.238771 -0.000207
