37

Ir 0.423924 -0.182941 -0.055208
N 2.675624 0.142228 0.038636
C 3.442641 -1.073932 -0.301397
C 3.028991 1.225393 -0.906974
C 3.005951 0.558779 1.421259
H 2.773004 0.908626 -1.935582
H 4.119077 1.457168 -0.852073
H 2.438280 2.125395 -0.657201
H 2.735591 -0.254431 2.120733
H 2.413758 1.456436 1.676590
H 4.095441 0.780909 1.515448
H 3.195710 -1.392886 -1.330886
H 3.170415 -1.893811 0.388230
H 4.538928 -0.880393 -0.231539
C -1.544731 -0.293182 -0.071759
C -3.778159 0.295788 -0.491609
C -3.748779 -0.935093 0.426932
H -4.102958 1.217708 0.046319
H -4.085309 -1.862482 -0.095821
C -1.865254 -1.995957 1.733953
H -1.978339 -3.038718 1.360808
H -0.792534 -1.804888 1.925620
H -2.435430 -1.892150 2.681412
C -1.972404 1.414698 -1.851906
H -2.144216 2.444147 -1.465175
H -0.891980 1.286816 -2.052688
H -2.544615 1.287771 -2.795728
N -2.376094 0.412674 -0.891240
N -2.330336 -1.027209 0.768579
H -4.374182 -0.816216 1.335824
H -4.439262 0.168121 -1.373691
C 0.539370 -1.957647 -0.502162
N 0.586988 -3.175802 -0.676475
H 0.617259 -3.642758 -1.587337
N 0.281843 1.809500 0.473866
C -0.343047 2.828845 0.670188
O -0.925559 3.862029 0.853130
