32

Ir 0.202126 -0.404694 0.062324
C -1.794869 -0.487263 0.046275
C -3.944514 -1.004687 -0.513109
C -3.991481 -0.028061 0.445758
H -4.746588 -1.522586 -1.047412
H -4.842296 0.479007 0.910404
C -2.304242 1.272975 1.769669
H -1.263489 1.074109 2.084008
H -2.354387 2.294647 1.340711
H -2.981735 1.197583 2.642332
C -2.113762 -2.247859 -1.709679
H -1.146611 -1.891374 -2.110194
H -1.946154 -3.231941 -1.228024
H -2.848127 -2.352781 -2.530505
N -2.603328 -1.270312 -0.747756
N -2.678847 0.270915 0.780251
N 2.311628 -0.179181 0.009813
C 4.497644 0.751477 -0.091281
O 4.508739 -0.708991 -0.037489
C 3.227433 -1.093217 0.014876
C 2.999131 1.129669 -0.069599
H 2.657312 1.665208 -0.976358
H 2.705242 1.750903 0.798902
H 5.023800 1.057288 -1.017420
H 5.067705 1.123755 0.783372
H 3.031183 -2.174497 0.062644
C 0.321125 -2.197481 0.437226
N 0.423446 -3.414604 0.591282
H 0.427551 -3.903613 1.491378
N 0.070468 1.607547 -0.297555
C -0.249629 2.761834 -0.390097
S -0.685102 4.313926 -0.480961
