35

Ir 0.136107 -0.112519 0.000816
C -1.850416 -0.209100 -0.020699
C -4.060707 0.059806 0.498283
C -3.986195 -0.816804 -0.551303
H -4.924083 0.452605 1.043664
H -4.772702 -1.343257 -1.100419
C -2.115153 -1.840210 -1.893341
H -1.144018 -1.427512 -2.227453
H -1.929312 -2.854402 -1.487619
H -2.828920 -1.883855 -2.738790
C -2.380637 1.322085 1.882822
H -1.289603 1.208821 2.039475
H -2.606840 2.375882 1.615209
H -2.922644 1.058009 2.812469
N -2.755321 0.417626 0.810959
N -2.641044 -0.963711 -0.857991
N 2.258354 -0.154766 0.023990
C 4.512976 -0.872855 0.238660
O 4.405378 0.448479 -0.373563
C 3.089607 0.700216 -0.477941
C 3.067194 -1.228115 0.644001
H 2.891722 -1.213384 1.738905
H 2.712639 -2.211033 0.279371
H 5.220191 -0.798347 1.087764
H 4.938852 -1.559860 -0.522470
H 2.799975 1.633698 -0.981035
C 0.118534 1.740993 -0.404457
N 0.112944 2.920026 -0.689099
C -0.042823 4.274695 -0.298603
H -0.891564 4.746264 -0.839941
H 0.864981 4.865934 -0.545825
H -0.231171 4.377251 0.794410
C 0.124225 -2.091617 0.524442
C 0.103270 -3.296525 0.829706
H 0.085469 -4.340286 1.113569
