23

Ir -0.040776 0.026226 0.000160
N -2.080524 -0.119708 -0.000258
C -4.104134 -1.099363 -0.000547
C -2.746166 -1.338906 -0.000338
N -4.250191 0.275235 -0.000390
C -3.011542 0.841315 -0.000323
H -5.130895 0.788989 -0.000894
H -4.960813 -1.779587 -0.000600
H -2.159295 -2.263881 -0.000203
H -2.815044 1.918059 -0.000246
N 1.984256 -0.141065 0.000339
C 4.328659 0.213190 -0.003729
O 3.974191 -1.200962 0.000914
C 2.635764 -1.265278 0.000670
C 2.971894 0.955654 0.002111
H 2.810804 1.594702 -0.888903
H 2.814392 1.587525 0.898997
H 4.938489 0.406462 -0.908972
H 4.948969 0.410045 0.893450
H 2.134227 -2.244112 0.001012
C -0.057303 1.832759 0.000126
O -0.086913 3.015697 -0.000036
F -0.024128 -1.988101 0.000153
