32

Ir -0.385551 -0.107362 0.023486
As 1.864815 -0.860037 0.048840
C 2.930212 -0.219504 1.564037
C 2.969975 -0.263325 -1.455976
C 2.185273 -2.793587 0.078454
H 2.965167 0.886293 1.511618
H 3.957881 -0.630552 1.516799
H 2.438529 -0.523868 2.506868
H 3.017927 0.843050 -1.429736
H 2.496266 -0.584236 -2.402569
H 3.991103 -0.685440 -1.376231
H 1.664865 -3.226812 0.953732
H 3.269480 -3.011000 0.134977
H 1.761578 -3.237845 -0.842654
N -2.304553 0.768136 0.027312
C -4.527524 1.105929 0.160599
C -3.530059 0.153570 0.220961
N -3.881686 2.305299 -0.072796
C -2.544332 2.071475 -0.148713
H -4.323788 3.219464 -0.170883
H -5.614072 1.032648 0.264181
H -3.601825 -0.924699 0.392586
H -1.771484 2.829412 -0.316443
C -1.034577 -1.836709 0.073066
N -1.448241 -2.974815 0.177630
C -1.735551 -4.195145 -0.494061
H -2.594516 -4.714022 -0.019820
H -0.866063 -4.887219 -0.438096
H -1.976494 -4.035198 -1.568914
N 0.423856 1.783674 -0.060493
C 1.250861 2.656995 -0.089706
S 2.376416 3.815242 -0.130570
