35

Ir 0.134464 -0.199973 -0.068634
N 2.280142 0.006695 0.000175
C 5.082387 0.316101 0.102563
C 4.236341 1.428702 -0.009862
C 2.851788 1.237638 -0.057791
C 3.101597 -1.069623 0.112425
C 4.494066 -0.955919 0.165257
H 6.175645 0.436704 0.141864
H 4.638111 2.451267 -0.060646
H 2.139126 2.074288 -0.120201
H 2.606924 -2.050855 0.154384
H 5.104155 -1.866315 0.257380
C -1.856086 -0.260980 -0.064280
C -4.079577 0.374822 -0.460038
C -4.065405 -0.833607 0.488766
H -4.374310 1.317418 0.058276
H -4.442326 -1.763260 -0.000712
C -2.181392 -1.931516 1.767126
H -2.348675 -2.974837 1.416345
H -1.096209 -1.778725 1.920194
H -2.714563 -1.790057 2.731023
C -2.266100 1.432340 -1.860053
H -2.423878 2.468733 -1.486646
H -1.188468 1.287778 -2.063635
H -2.844276 1.298448 -2.799163
N -2.679746 0.451850 -0.880755
N -2.641637 -0.963041 0.798773
H -4.663590 -0.672722 1.409406
H -4.755012 0.240973 -1.330199
C 0.214991 -1.969395 -0.544994
N 0.258041 -3.184604 -0.740805
H 0.275750 -3.632431 -1.661990
N -0.000446 1.790519 0.468922
C -0.659454 2.782438 0.692866
O -1.274446 3.791947 0.900378
