51

Ir 1.392063 -0.159450 0.022576
P -0.873733 0.022164 0.012546
C -1.738169 -2.587106 0.603407
C -1.802141 -1.537904 -0.339295
C -1.510872 1.190900 -1.267706
C -0.805966 1.287476 -2.485504
C -1.285964 2.112289 -3.512940
C -2.464208 2.854901 -3.328552
C -3.161781 2.769495 -2.113018
C -2.689995 1.939048 -1.084015
C -1.646624 0.601665 1.594552
C -0.940129 1.503937 2.417400
C -1.524761 1.980004 3.600659
C -2.811578 1.561613 3.976737
C -3.519004 0.664929 3.160352
C -2.941650 0.185404 1.973849
C -2.536078 -1.721412 -1.527346
C -3.195182 -2.938504 -1.768141
C -3.131186 -3.976376 -0.826446
C -2.401768 -3.796930 0.361244
H -1.162990 -2.455152 1.533071
H 0.130071 0.718835 -2.606213
H -0.729460 2.184294 -4.460048
H -2.835804 3.508966 -4.132521
H -4.079969 3.357430 -1.960216
H -3.238493 1.881688 -0.131810
H 0.062801 1.840491 2.111932
H -0.965386 2.684332 4.235601
H -3.264186 1.933564 4.909029
H -4.528363 0.331931 3.447685
H -3.502184 -0.521132 1.343344
H -2.595661 -0.910640 -2.268390
H -3.764754 -3.072118 -2.700730
H -3.648885 -4.928927 -1.017598
H -2.343262 -4.608020 1.103033
N 3.661255 -0.132903 0.054997
C 4.141296 0.606114 -1.139086
C 4.094428 0.567406 1.290228
C 4.246097 -1.493777 0.044917
H 3.650577 1.579517 1.302736
H 5.206643 0.634431 1.325509
H 3.730792 0.006396 2.171425
H 3.932185 -2.031192 -0.868398
H 3.894305 -2.059833 0.926583
H 5.358733 -1.435792 0.069013
H 3.702860 1.620692 -1.134327
H 3.808783 0.076627 -2.051500
H 5.254303 0.669200 -1.131462
C 1.326888 -1.975950 -0.039531
O 1.309011 -3.150696 -0.091292
Cl 1.501983 2.252482 0.050144
