27

Ir -0.041473 -0.101006 -0.026749
N -2.100590 -0.179850 -0.036857
C -4.274183 0.354900 -0.314319
C -2.979867 0.817530 -0.434853
N -4.163876 -0.936913 0.163157
C -2.845928 -1.233033 0.324376
H -4.933859 -1.574765 0.362557
H -5.238394 0.825569 -0.526931
H -2.614725 1.789817 -0.778004
H -2.431284 -2.194084 0.650270
N 1.993091 -0.124352 -0.043708
C 4.232414 -0.849401 0.171907
O 4.130955 0.428370 -0.529037
C 2.816269 0.669004 -0.658961
C 2.816837 -1.097753 0.717440
H 2.709971 -0.869199 1.798342
H 2.420266 -2.116490 0.542842
H 5.015516 -0.753050 0.947812
H 4.549104 -1.611884 -0.571373
H 2.517717 1.538018 -1.260997
C -0.043432 1.725729 -0.042150
N -0.012557 2.944184 -0.140333
C -0.006619 4.114726 0.680872
H -0.900387 4.741700 0.472839
H 0.881732 4.743375 0.456981
H 0.002743 3.873503 1.767102
Cl -0.008121 -2.527863 0.009933
