32

Ir -0.228980 -0.204501 -0.014467
P 1.994498 -0.293025 -0.030859
C 5.126260 -0.401446 -0.063335
C 4.411446 -1.610412 -0.136847
C 3.013612 -1.696581 -0.132169
C 3.105671 1.041919 0.044893
C 4.492527 0.852695 0.020743
H 6.226049 -0.437060 -0.074897
H 4.984853 -2.550455 -0.205530
H 2.519829 -2.678136 -0.202171
H 2.689562 2.060302 0.107224
H 5.127696 1.753208 0.070742
N -2.354554 0.004834 -0.029529
C -5.144237 0.348908 -0.068260
C -4.318433 1.247528 0.621411
C -2.933871 1.048653 0.617122
C -3.153303 -0.867329 -0.695718
C -4.543296 -0.726661 -0.739576
H -6.236273 0.484132 -0.084193
H -4.733984 2.108976 1.163666
H -2.243004 1.738887 1.121222
H -2.642665 -1.698148 -1.202778
H -5.141120 -1.459038 -1.300981
C -0.333286 -2.069286 0.028976
N -0.406320 -3.272550 0.000719
C -0.432504 -4.560468 0.591124
H -1.299987 -4.667680 1.278069
H 0.493362 -4.747057 1.177906
H -0.510284 -5.350311 -0.184247
N -0.126873 1.827655 -0.014888
C 0.231614 2.975807 -0.017925
S 0.722561 4.510302 -0.012747
