29

Ir 0.131672 -0.031832 0.013508
N -1.895345 -0.030615 -0.001676
C -2.614181 -0.995808 -0.647369
C -4.012558 -0.998609 -0.618920
N -4.743710 -0.080109 0.033447
C -4.029275 0.864383 0.669495
C -2.632943 0.906558 0.663664
H -2.050201 -1.756534 -1.200682
H -4.556540 -1.792456 -1.159557
H -4.588259 1.637776 1.224969
H -2.073567 1.687343 1.195678
N 2.197281 -0.133276 0.077983
C 4.360712 0.314500 0.512938
C 3.066249 0.754550 0.695671
N 4.255870 -0.849904 -0.225712
C 2.944525 -1.094997 -0.478756
H 5.028270 -1.441512 -0.532139
H 5.321625 0.720648 0.841809
H 2.696786 1.636720 1.226340
H 2.509743 -1.966616 -0.991344
C 0.201532 1.840412 -0.078706
N 0.238796 3.044585 -0.098642
C 0.360790 4.324990 -0.689163
H 1.180115 4.901597 -0.209875
H -0.574653 4.908420 -0.554783
H 0.574025 4.255575 -1.778467
N 0.047016 -2.154635 0.082515
O 0.733117 -2.881432 -0.673587
O -0.754934 -2.669582 0.879764
