38

Ir 0.269779 0.033842 -0.014433
P -2.011762 -0.040659 0.008332
C -2.751007 0.907449 1.429670
C -2.835472 -1.700241 0.162169
C -2.824300 -2.560480 -1.103565
C -2.882111 0.690085 -1.469076
C -2.524582 2.136938 -1.809698
C -2.284163 0.405779 2.798346
H -2.447056 1.965151 1.282019
H -3.858154 0.868419 1.331067
H -2.292328 -2.218203 0.978276
H -3.874748 -1.510226 0.509780
H -2.628484 0.024491 -2.319863
H -3.973445 0.574924 -1.284176
H -1.791273 -2.693176 -1.479918
H -3.229416 -3.569088 -0.881628
H -3.447498 -2.126453 -1.911438
H -2.727753 2.832886 -0.970772
H -1.451770 2.231383 -2.067468
H -3.115824 2.486859 -2.680519
H -2.614789 -0.635150 2.990963
H -1.176623 0.419102 2.858367
H -2.688584 1.041438 3.612322
N 2.400357 0.023312 -0.048000
C 4.687069 -0.630227 -0.090416
O 4.514819 0.821096 -0.115645
C 3.196963 1.043381 -0.089705
C 3.247867 -1.190036 -0.038561
H 3.022512 -1.781214 0.869826
H 2.977922 -1.827433 -0.902360
H 5.299254 -0.878988 0.799324
H 5.248102 -0.916308 -1.002486
H 2.875493 2.094937 -0.103268
C 0.215293 1.904379 0.068864
O 0.193500 3.072933 0.198359
C 0.355207 -2.002066 0.081886
C 0.450234 -3.235519 0.186405
H 0.522870 -4.311333 0.274694
