28

Ir -0.046133 -0.074629 0.000051
P -2.320337 0.058864 -0.000022
C -3.008619 0.973325 -1.442984
C -3.008919 0.973366 1.442756
C -3.269027 -1.520093 -0.000116
H -2.554815 1.983327 -1.456065
H -4.112901 1.051279 -1.376263
H -2.724195 0.447979 -2.374918
H -2.554650 1.983151 1.456272
H -2.725327 0.447704 2.374766
H -4.113126 1.051871 1.375405
H -2.998817 -2.110295 -0.897117
H -4.360263 -1.325406 0.000043
H -2.998593 -2.110601 0.896612
N 2.067414 0.066577 0.000019
C 4.391742 -0.435942 -0.000119
O 4.120379 0.998074 -0.000137
C 2.792948 1.141616 -0.000121
C 2.989702 -1.088577 0.000182
H 2.794454 -1.713553 0.894492
H 2.794273 -1.713991 -0.893778
H 4.994151 -0.664639 0.901332
H 4.993784 -0.664720 -0.901799
H 2.386193 2.165010 -0.000186
C -0.068195 -1.945638 0.000007
O -0.124409 -3.116164 -0.000033
C -0.115055 1.973463 0.000091
N -0.161429 3.155135 0.000090
