32

Ir -0.000005 0.077890 -0.000585
N 2.187959 0.002409 -0.014586
C 2.824961 1.343582 -0.007860
C 2.666864 -0.735006 1.186838
C 2.637454 -0.714424 -1.240793
H 2.312408 -0.212877 2.094587
H 3.780559 -0.777714 1.188388
H 2.247921 -1.757160 1.162259
H 2.270237 -0.169857 -2.130115
H 2.207959 -1.733231 -1.232785
H 3.750645 -0.764835 -1.264095
H 2.510149 1.904650 0.889552
H 2.510829 1.907940 -0.903627
H 3.933205 1.235065 -0.011216
N -2.188000 0.002244 -0.014602
C -2.825014 1.343389 -0.007792
C -2.637377 -0.714519 -1.240875
C -2.666947 -0.735252 1.186761
H -2.270127 -0.169920 -2.130170
H -3.750568 -0.764972 -1.264266
H -2.207829 -1.733307 -1.232919
H -2.312536 -0.213186 2.094565
H -2.247986 -1.757397 1.162122
H -3.780639 -0.777974 1.188235
H -2.510930 1.907793 -0.903543
H -2.510141 1.904409 0.889631
H -3.933260 1.234862 -0.011111
C -0.000135 1.906764 0.014592
N -0.000200 3.128964 0.171826
H -0.000215 3.848215 -0.554607
S 0.000247 -2.413589 -0.040150
H -0.000382 -2.593141 1.312874
