30

Ir 0.067914 0.033881 -0.000783
As 2.510970 -0.130512 -0.007436
C 3.627543 1.432906 -0.378175
C 3.133450 -1.500413 -1.251506
C 3.183125 -0.801714 1.700532
H 3.432892 1.769737 -1.414316
H 4.701524 1.192307 -0.257406
H 3.338641 2.244904 0.316184
H 2.986373 -1.145766 -2.288939
H 2.474905 -2.370809 -1.064459
H 4.197013 -1.754311 -1.077107
H 2.987564 -0.052195 2.490329
H 4.264846 -1.033759 1.647421
H 2.592835 -1.714175 1.909807
P -2.173454 -0.066813 0.009614
C -5.308614 -0.296791 -0.003106
C -4.548515 -1.449060 -0.275179
C -3.148352 -1.475679 -0.299816
C -3.343260 1.186457 0.302871
C -4.723151 0.954488 0.268958
H -6.406267 -0.375506 -0.007944
H -5.087103 -2.387952 -0.489365
H -2.617469 -2.409725 -0.543954
H -2.950772 2.191558 0.524333
H -5.393548 1.807540 0.469845
C 0.037073 1.875121 -0.159026
N 0.034137 3.104478 -0.124942
H -0.038496 3.705650 -0.952048
O 0.347216 -1.977300 0.222613
H -0.444989 -2.432090 0.559454
