34

Ir 0.029739 -0.434526 0.056294
As -2.405967 -0.147094 -0.003652
C -3.568695 -1.677523 0.378558
C -3.101354 0.499827 -1.717746
C -3.079383 1.219973 1.227794
H -3.348142 -2.483295 -0.347519
H -4.636564 -1.392638 0.311269
H -3.342741 -2.051065 1.395667
H -2.913827 -0.265162 -2.494849
H -2.544472 1.419613 -1.979865
H -4.185781 0.714986 -1.650591
H -2.865428 0.903760 2.266340
H -4.168384 1.371140 1.094286
H -2.535171 2.161498 1.021226
C 2.071974 -0.411005 0.057788
C 4.227510 0.184985 0.470519
C 4.249859 -0.811591 -0.469225
H 5.041524 0.749528 0.934992
H 5.087294 -1.293496 -0.982616
C 2.505911 -2.197669 -1.640560
H 2.448310 -3.182911 -1.134868
H 1.500994 -1.937112 -2.021572
H 3.223666 -2.254982 -2.480456
C 2.446438 1.414298 1.743431
H 2.429584 2.424015 1.285466
H 1.419964 1.154641 2.059731
H 3.122205 1.408945 2.620169
N 2.895536 0.412060 0.783711
N 2.928692 -1.159104 -0.711385
C -0.055729 -2.226360 0.434706
O -0.118424 -3.376142 0.674816
N 0.081435 1.567346 -0.342746
C 0.236693 2.755322 -0.423223
S 0.461400 4.351917 -0.499300
