30

Ir -0.205518 -0.065789 -0.025759
As 2.161902 0.016875 0.023075
C 2.907364 0.929157 1.588180
C 2.999012 1.008195 -1.445006
C 3.160979 -1.670930 0.008027
H 2.447534 1.934918 1.626804
H 4.010150 1.005117 1.515098
H 2.621969 0.368171 2.498058
H 2.538526 2.014267 -1.460425
H 2.772034 0.495113 -2.398636
H 4.095003 1.080220 -1.300938
H 2.815785 -2.297088 0.852430
H 4.249210 -1.483861 0.091707
H 2.944383 -2.205028 -0.936816
N -2.297895 0.074701 -0.012879
C -4.618594 -0.410205 0.135751
O -4.349125 1.015465 -0.015585
C -3.017675 1.151462 -0.059077
C -3.225111 -1.073779 0.056098
H -3.085581 -1.704463 -0.845213
H -2.977842 -1.697619 0.936907
H -5.311602 -0.712908 -0.673702
H -5.123861 -0.554739 1.112492
H -2.597146 2.166630 -0.128695
C -0.224033 -1.944864 -0.049618
N -0.211139 -3.167388 0.032815
H -0.147611 -3.863632 -0.713092
C -0.086459 1.984975 -0.030786
C 0.018500 3.223730 -0.027588
H 0.103489 4.302420 -0.024802
