53

Ir -1.362555 -0.225099 0.023444
P 0.914339 -0.037541 0.007336
C 1.345919 -2.478372 -1.304946
C 1.808117 -1.630837 -0.274123
C 1.629163 0.628378 1.570562
C 0.890332 0.480139 2.761154
C 1.417642 0.939016 3.977023
C 2.679576 1.554335 4.010736
C 3.415585 1.711952 2.824506
C 2.893990 1.252310 1.605479
C 1.623516 1.082038 -1.293660
C 1.436004 2.478604 -1.180746
C 1.956732 3.338882 -2.156933
C 2.665001 2.825321 -3.255681
C 2.855247 1.440503 -3.371259
C 2.340578 0.571621 -2.395518
C 2.925917 -2.019564 0.489714
C 3.572188 -3.237542 0.222849
C 3.115772 -4.070794 -0.809987
C 2.001297 -3.687950 -1.574718
H 0.457417 -2.186517 -1.887668
H -0.108650 0.017870 2.709226
H 0.833196 0.825842 4.902908
H 3.088828 1.921531 4.964648
H 4.401341 2.201692 2.846403
H 3.468496 1.386881 0.676013
H 0.877722 2.899632 -0.331086
H 1.798756 4.423611 -2.057145
H 3.068480 3.505553 -4.021545
H 3.413232 1.026352 -4.225210
H 2.510384 -0.510032 -2.494671
H 3.290073 -1.374313 1.302618
H 4.439083 -3.536741 0.831857
H 3.624668 -5.025125 -1.015326
H 1.632188 -4.340307 -2.380837
N -3.617589 -0.186032 -0.087232
C -4.171779 0.926532 0.728034
C -3.958640 0.023886 -1.518432
C -4.221294 -1.454282 0.386245
H -3.466708 0.952017 -1.866011
H -5.064036 0.100085 -1.644477
H -3.577276 -0.828546 -2.110429
H -3.943467 -1.628726 1.442227
H -3.851387 -2.298934 -0.222176
H -5.331394 -1.406926 0.302714
H -3.842650 1.895449 0.315815
H -3.813335 0.835849 1.770116
H -5.285111 0.890546 0.713040
C -1.285321 -2.041903 0.357346
O -1.240955 -3.177648 0.643200
N -1.450264 1.881523 -0.140492
O -1.065744 2.564555 0.826666
O -1.887858 2.423957 -1.173367
