36

Ir 0.007934 0.019296 0.019964
P 2.335020 0.145078 0.035819
C 3.137031 -0.649754 -1.419802
C 3.099490 -0.731910 1.463952
C 3.102132 1.820356 0.093547
H 2.753642 -1.686211 -1.489253
H 4.242425 -0.656512 -1.328183
H 2.839058 -0.108027 -2.338267
H 2.714700 -1.770199 1.464201
H 2.776998 -0.242300 2.403112
H 4.206955 -0.734907 1.400807
H 2.791476 2.389472 -0.804356
H 4.208689 1.760450 0.129091
H 2.727788 2.356815 0.987083
P -2.305188 -0.230292 0.038236
C -2.945630 -1.954869 0.023163
C -3.183578 0.560020 -1.380519
C -3.140832 0.526963 1.498455
H -2.576967 -2.471515 -0.883537
H -4.054045 -1.967980 0.042340
H -2.546102 -2.496573 0.901741
H -2.818004 0.110878 -2.324138
H -2.935617 1.639369 -1.393422
H -4.283037 0.431079 -1.306016
H -2.767083 0.036435 2.417986
H -4.243902 0.423537 1.441079
H -2.864309 1.598560 1.545248
C -0.202565 1.857567 0.112518
N -0.352951 3.056536 0.254873
C -0.424691 4.308314 -0.420725
H 0.498124 4.902495 -0.242565
H -1.274545 4.912507 -0.038992
H -0.549502 4.188778 -1.520529
N 0.270011 -2.008145 -0.090256
C 0.277643 -3.213253 -0.155129
O 0.295180 -4.412882 -0.219569
