33

Ir -0.065241 0.016476 0.051773
N -2.225207 -0.036690 0.033302
C -5.038066 -0.215308 0.005378
C -4.251484 -1.261743 0.508760
C -2.858239 -1.141456 0.507973
C -2.986908 0.976871 -0.452944
C -4.383556 0.924626 -0.484611
H -6.136552 -0.284724 -0.004984
H -4.708918 -2.179858 0.906175
H -2.167723 -1.919724 0.883721
H -2.444179 1.857233 -0.826005
H -4.943897 1.778911 -0.891602
C 1.916221 -0.131972 0.043973
C 4.049154 -0.902836 -0.564599
C 4.206792 0.305391 0.367616
H 4.661686 -1.777070 -0.260192
H 4.869246 1.093926 -0.047156
C 2.542099 1.915203 1.344111
H 2.851455 2.866666 0.860739
H 1.454269 1.943535 1.541140
H 3.080433 1.820973 2.314220
C 2.048795 -2.258256 -1.268056
H 2.653506 -3.178552 -1.128858
H 1.015300 -2.443072 -0.915844
H 2.042422 -2.000827 -2.352004
N 2.617873 -1.190686 -0.466982
N 2.828887 0.776665 0.500104
H 4.611843 0.020669 1.368314
H 4.317075 -0.655624 -1.619666
C 0.026466 1.708897 -0.633255
O 0.115915 2.809425 -1.052837
O -0.225199 -1.865965 0.820607
H 0.563322 -2.120324 1.332243
