34

Ir -0.302095 -0.038232 -0.013178
N -2.496965 -0.061625 -0.033422
C -2.956667 -0.253403 1.369795
C -3.069194 1.199034 -0.567283
C -3.008803 -1.180530 -0.874398
H -2.756076 2.048754 0.064946
H -4.181697 1.141936 -0.574813
H -2.701052 1.364496 -1.596552
H -2.714215 -2.144336 -0.426839
H -2.579443 -1.098837 -1.889955
H -4.120012 -1.132578 -0.932816
H -2.615486 0.602827 1.980249
H -2.497659 -1.183303 1.755407
H -4.069425 -0.319722 1.404792
N 1.736292 -0.132012 0.023792
C 4.555430 -0.248028 0.046359
C 3.804691 -1.042078 -0.832026
C 2.408705 -0.959818 -0.824158
C 2.465748 0.633282 0.885279
C 3.861191 0.603067 0.920392
H 5.654887 -0.292233 0.053312
H 4.289813 -1.732746 -1.536921
H 1.771829 -1.592244 -1.459635
H 1.883206 1.277991 1.557246
H 4.391609 1.244379 1.639250
C -0.201829 1.832646 -0.119125
N -0.063056 3.023989 -0.168221
C 0.041036 4.421248 -0.245948
H 0.854662 4.727362 -0.939711
H 0.257587 4.870143 0.748974
H -0.905253 4.871251 -0.618993
N -0.344044 -2.154085 0.158916
O 0.255796 -2.873240 -0.663640
O -0.996968 -2.686222 1.084388
