52

Ir 1.136377 -0.142082 0.004303
P -1.152967 -0.043667 0.010376
C -1.445149 -2.191499 1.783555
C -1.951016 -1.605458 0.601884
C -1.903164 0.266039 -1.646014
C -1.141253 -0.032884 -2.793023
C -1.687841 0.164188 -4.069943
C -2.992145 0.665499 -4.209109
C -3.751696 0.973326 -3.067718
C -3.210420 0.777680 -1.788042
C -1.945918 1.260005 1.067554
C -1.760746 2.619368 0.727155
C -2.350159 3.624733 1.505585
C -3.126088 3.294555 2.628948
C -3.314285 1.947053 2.969474
C -2.730246 0.932913 2.192794
C -3.014125 -2.230164 -0.076910
C -3.564753 -3.423419 0.420678
C -3.066898 -3.995624 1.601219
C -2.006276 -3.375054 2.284104
H -0.596115 -1.713990 2.299274
H -0.111419 -0.403178 -2.661922
H -1.085478 -0.064562 -4.962432
H -3.416821 0.827116 -5.212061
H -4.770867 1.376002 -3.174021
H -3.801974 1.032942 -0.895093
H -1.151181 2.898790 -0.145594
H -2.192424 4.678948 1.231112
H -3.583524 4.088820 3.238919
H -3.923984 1.675969 3.845279
H -2.896749 -0.118805 2.466763
H -3.409944 -1.789972 -1.004160
H -4.390016 -3.908776 -0.122853
H -3.502964 -4.929092 1.989333
H -1.610185 -3.818498 3.210966
N 3.265565 -0.103890 0.038796
C 6.071143 -0.046888 0.151111
C 5.301484 0.792384 0.968999
C 3.905540 0.739364 0.888777
C 4.007704 -0.915542 -0.756847
C 5.405337 -0.913825 -0.728483
H 7.170622 -0.025222 0.195726
H 5.770064 1.495535 1.672515
H 3.251381 1.403487 1.477350
H 3.444579 -1.584634 -1.423125
H 5.958132 -1.590853 -1.395621
C 1.114634 -2.000315 -0.078569
N 1.134697 -3.194317 -0.329267
H 1.049218 -3.996589 0.297192
N 1.203675 1.973431 -0.102357
O 0.864347 2.533574 -1.159935
O 1.548600 2.638515 0.893962
