33

Ir 0.325281 0.067258 -0.054504
C -1.654885 0.022735 -0.029251
C -3.832602 0.447980 0.498663
C -3.821325 -0.555893 -0.432954
H -4.664544 0.943692 1.007624
H -4.641842 -1.116513 -0.890647
C -2.027799 -1.821802 -1.668258
H -1.093319 -1.465420 -2.142330
H -1.800735 -2.753617 -1.112604
H -2.801874 -2.005790 -2.437541
C -2.070705 1.825104 1.655358
H -1.000920 1.645454 1.876534
H -2.179800 2.830948 1.200150
H -2.663692 1.774647 2.588980
N -2.507482 0.787023 0.735622
N -2.492040 -0.794756 -0.749886
N 2.617814 -0.010199 0.019102
C 3.113092 -1.218266 -0.677148
C 3.223180 1.183047 -0.611940
C 3.016495 -0.064070 1.445404
H 2.914294 1.241660 -1.672152
H 4.336270 1.135004 -0.557111
H 2.876165 2.096808 -0.095786
H 2.546337 -0.952467 1.909468
H 2.647606 0.843186 1.960127
H 4.127046 -0.118616 1.540295
H 2.786502 -1.192314 -1.734089
H 2.685921 -2.112384 -0.187554
H 4.226787 -1.267850 -0.635813
C 0.285202 1.755554 -0.771609
O 0.198855 2.845425 -1.211151
S 0.232325 -2.119513 1.049901
H 0.633175 -2.877251 -0.013386
