38

Ir -0.154840 -0.085436 0.003588
P -2.455972 -0.389022 0.071209
C -3.101529 -1.040537 1.673228
C -3.091464 -1.629450 -1.139268
C -3.546194 1.073290 -0.239373
H -2.540334 -1.968897 1.897898
H -4.190459 -1.247916 1.627224
H -2.892984 -0.305130 2.474374
H -2.531905 -2.569897 -0.966452
H -2.873090 -1.276582 -2.165939
H -4.181457 -1.801460 -1.024394
H -3.333116 1.848240 0.523040
H -4.621303 0.803518 -0.200658
H -3.304963 1.495661 -1.234551
C 1.892178 -0.084290 -0.008505
C 4.051204 -0.585430 -0.538509
C 4.076768 0.199780 0.584395
H 4.864711 -1.039475 -1.112603
H 4.916256 0.569425 1.181078
C 2.318665 1.289251 2.026452
H 2.627645 2.348583 1.909086
H 1.212358 1.222634 2.060538
H 2.743617 0.885332 2.966865
C 2.228905 -1.557334 -1.988170
H 2.152769 -2.619437 -1.681311
H 1.211145 -1.202626 -2.241956
H 2.905072 -1.454109 -2.859090
N 2.716734 -0.742161 -0.885908
N 2.754200 0.493364 0.891978
C -0.292513 1.767541 -0.414588
N -0.408520 2.925128 -0.733534
C -0.598295 4.312974 -0.570822
H -1.662448 4.591138 -0.738217
H 0.009972 4.888924 -1.301030
H -0.315907 4.653903 0.451451
C -0.058992 -2.080424 0.451413
C -0.027011 -3.297055 0.704473
H 0.019450 -4.352121 0.938109
