28

Ir -0.211868 -0.230933 -0.021065
N 1.832821 -0.271313 -0.032667
C 3.975317 0.318442 -0.395900
C 2.661365 0.681150 -0.609403
N 3.930531 -0.864959 0.313689
C 2.627085 -1.196462 0.521205
H 4.732368 -1.407058 0.634899
H 4.915048 0.797210 -0.685597
H 2.249414 1.551447 -1.126251
H 2.288332 -2.093170 1.048436
N -2.376448 0.012452 -0.013686
C -2.766937 0.740036 1.225103
C -2.763839 0.818574 -1.203950
C -3.115848 -1.274874 -0.056454
H -2.218108 1.778095 -1.178778
H -3.863077 0.999849 -1.201895
H -2.477893 0.269430 -2.119713
H -2.848912 -1.886432 0.824167
H -2.841152 -1.830457 -0.971093
H -4.213220 -1.085926 -0.054608
H -2.226518 1.701953 1.261516
H -2.478908 0.135661 2.104647
H -3.866998 0.916877 1.234579
C -0.265753 -2.050349 -0.036721
O -0.242274 -3.230719 -0.022579
N -0.098318 1.815045 0.023369
C 0.246347 2.965477 0.167760
O 0.561889 4.116200 0.290949
