29

Ir 0.053721 -0.432963 -0.014481
N 2.111192 0.123877 -0.005392
C 2.496626 1.350853 -0.440997
C 3.847466 1.723465 -0.440501
N 4.830576 0.913398 -0.018333
C 4.438844 -0.295922 0.413252
C 3.098984 -0.702401 0.425610
H 1.695041 2.026134 -0.772975
H 4.133386 2.726166 -0.802490
H 5.220436 -0.988306 0.771187
H 2.802897 -1.699639 0.779990
P -2.211096 -0.791362 -0.033023
C -3.073591 0.007429 -1.448287
C -3.077833 -0.107275 1.438798
C -2.775036 -2.540746 -0.102949
H -2.925332 1.103682 -1.390257
H -4.158601 -0.219481 -1.417820
H -2.639769 -0.362683 -2.396838
H -2.929206 0.990163 1.468744
H -2.646448 -0.551364 2.356169
H -4.162804 -0.330704 1.387415
H -2.374834 -3.020148 -1.017139
H -3.881983 -2.594436 -0.109626
H -2.382504 -3.089589 0.774774
C 0.400192 -2.233200 -0.044155
O 0.588507 -3.393030 -0.049004
N -0.431360 1.549547 0.041251
C -1.108330 2.544354 0.101835
S -2.030324 3.860997 0.177060
