40

Ir 0.299827 0.138464 0.010829
P -2.035641 -0.121381 -0.022231
C -2.799065 -0.643102 1.590742
C -2.585025 -1.436432 -1.211314
C -2.113951 -1.196091 -2.647484
C -3.078263 1.338337 -0.522375
C -3.136857 2.492342 0.481205
C -2.166748 -1.877092 2.237816
H -2.703372 0.234170 2.264069
H -3.886406 -0.788700 1.403066
H -2.152189 -2.382045 -0.824621
H -3.692234 -1.514817 -1.144019
H -2.657333 1.684151 -1.489616
H -4.098075 0.949144 -0.736123
H -1.008608 -1.112370 -2.682768
H -2.415708 -2.038195 -3.302716
H -2.539742 -0.267613 -3.080235
H -3.624838 2.192560 1.430229
H -2.130121 2.883427 0.724283
H -3.724798 3.334672 0.063211
H -2.223707 -2.771862 1.587187
H -1.093636 -1.706203 2.451809
H -2.680372 -2.116804 3.191074
P 2.632577 0.009333 0.030087
C 3.303007 -0.921060 1.470100
C 3.574708 1.592426 0.054679
C 3.328526 -0.891161 -1.416672
H 3.006244 -0.408574 2.405454
H 4.408195 -0.997902 1.418197
H 2.849460 -1.931417 1.462255
H 3.292978 2.170104 0.956469
H 3.303632 2.192221 -0.835855
H 4.668135 1.408892 0.058953
H 2.870837 -1.899443 -1.440815
H 4.432189 -0.973625 -1.344716
H 3.052201 -0.356130 -2.345652
C 0.292846 2.009751 -0.038526
O 0.342183 3.179293 -0.094328
C 0.418512 -1.905446 -0.008728
N 0.534709 -3.081976 -0.046122
