28

Ir 0.169642 -0.051322 0.001619
N -1.882814 0.037483 0.002130
C -3.995235 0.808631 0.171162
C -2.663936 1.158490 0.257418
N -4.014417 -0.536649 -0.138795
C -2.729607 -0.974832 -0.236028
H -4.842903 -1.115141 -0.274596
H -4.908613 1.396088 0.301662
H -2.193775 2.124116 0.465750
H -2.444643 -2.006119 -0.463353
N 2.355928 0.015149 0.008266
C 2.825616 0.686228 -1.235863
C 2.812938 0.795302 1.192051
C 2.981812 -1.330616 0.072351
H 2.376082 1.808720 1.145986
H 3.926029 0.854212 1.202721
H 2.456939 0.295749 2.111665
H 2.670559 -1.927928 -0.803429
H 2.655773 -1.848846 0.992009
H 4.091661 -1.236610 0.076788
H 2.389801 1.699893 -1.285054
H 2.478107 0.106799 -2.110750
H 3.938882 0.743611 -1.240931
C 0.101101 -1.912763 0.055954
O 0.010244 -3.087325 0.073609
C 0.211914 1.999690 -0.087623
C 0.250383 3.240451 -0.144503
H 0.280911 4.320492 -0.202732
