33

Ir 0.019007 -0.497001 0.057288
P -2.267342 -0.260513 0.025567
C -5.406851 -0.032440 -0.013378
C -4.643229 1.144838 0.095783
C -3.244205 1.175033 0.124782
C -3.442517 -1.539346 -0.097135
C -4.823684 -1.309325 -0.105873
H -6.504408 0.049394 -0.028404
H -5.179428 2.106858 0.163098
H -2.703836 2.131761 0.205981
H -3.054429 -2.567193 -0.178591
H -5.493745 -2.181725 -0.192500
C 2.070230 -0.580035 0.050230
C 4.279411 -0.234763 0.731236
C 4.275535 -0.744191 -0.721931
H 4.571133 0.838785 0.800696
H 4.706569 -1.767634 -0.819678
C 2.371416 -1.064949 -2.371161
H 2.725432 -2.065451 -2.705518
H 1.263737 -1.054609 -2.348893
H 2.725995 -0.300568 -3.095383
C 2.421421 0.034952 2.428557
H 2.543510 1.133689 2.557000
H 1.343211 -0.203467 2.515067
H 2.990548 -0.491494 3.223337
N 2.875066 -0.391826 1.123326
N 2.845428 -0.765997 -1.040022
H 4.828109 -0.078360 -1.417078
H 4.951597 -0.814124 1.397508
C -0.136576 -2.324097 0.210250
N -0.237959 -3.543351 0.196957
H -0.295969 -4.182729 0.992608
I 0.423116 2.214676 -0.185168
