51

Ir 1.173274 -0.113018 -0.034887
P -1.082575 0.030470 0.009067
C -1.892149 -2.442942 1.043839
C -2.047254 -1.542120 -0.032493
C -1.775025 1.012109 -1.402526
C -1.091075 0.960979 -2.636577
C -1.587053 1.661150 -3.747395
C -2.762535 2.421367 -3.633575
C -3.442398 2.480892 -2.405435
C -2.952919 1.779899 -1.292399
C -1.762602 0.902585 1.497745
C -1.004449 1.958614 2.048714
C -1.500080 2.673280 3.149454
C -2.743360 2.339848 3.713024
C -3.497686 1.288631 3.167972
C -3.012561 0.571330 2.061935
C -2.882639 -1.890927 -1.110142
C -3.555431 -3.124614 -1.110644
C -3.404641 -4.013121 -0.035638
C -2.572954 -3.667815 1.044017
H -1.234586 -2.175110 1.886261
H -0.159892 0.373586 -2.702551
H -1.046976 1.617209 -4.705705
H -3.147548 2.975842 -4.503457
H -4.359792 3.082305 -2.310849
H -3.485397 1.835827 -0.330660
H -0.027651 2.203177 1.593581
H -0.903700 3.495108 3.575474
H -3.124461 2.898297 4.582202
H -4.471899 1.021323 3.606134
H -3.608782 -0.252957 1.641501
H -3.008451 -1.197302 -1.955021
H -4.204015 -3.389707 -1.959805
H -3.934988 -4.977834 -0.037438
H -2.452438 -4.360330 1.891655
N 3.322151 -0.005267 -0.005048
C 6.122253 0.232616 0.109650
C 5.297359 1.362894 0.203248
C 3.908545 1.210871 0.138527
C 4.117300 -1.100689 -0.100789
C 5.512366 -1.020497 -0.049362
H 7.218084 0.325434 0.156662
H 5.720359 2.371038 0.324166
H 3.192304 2.052537 0.170031
H 3.601486 -2.064456 -0.221172
H 6.106586 -1.941896 -0.135014
C 1.166854 -1.947800 0.026538
N 1.198074 -3.174209 -0.089854
H 1.009776 -3.832528 0.672399
O 1.278460 1.932516 -0.161319
H 0.522021 2.342765 -0.619357
