31

Ir 0.139608 -0.143307 0.019471
N -1.969523 -0.165891 0.015355
C -2.604061 -1.351507 -0.184781
C -4.002331 -1.418037 -0.193131
N -4.792637 -0.346801 -0.008126
C -4.150583 0.815608 0.193642
C -2.755097 0.924175 0.209097
H -1.932128 -2.216340 -0.321935
H -4.497818 -2.390483 -0.359381
H -4.768091 1.716962 0.353540
H -2.242759 1.882576 0.377360
P 2.378369 -0.498549 0.018015
C 2.887088 -1.505806 -1.434778
C 2.886341 -1.542902 1.445522
C 3.534071 0.932700 0.043505
H 2.189517 -2.366389 -1.454931
H 3.938169 -1.850661 -1.357566
H 2.746475 -0.915581 -2.360551
H 2.222143 -2.429237 1.426586
H 2.710315 -0.989827 2.387941
H 3.949294 -1.851983 1.376649
H 3.359058 1.552170 -0.857689
H 4.590986 0.598890 0.064620
H 3.318846 1.552057 0.935931
C 0.290110 1.677133 0.138639
N 0.393988 2.882396 0.297614
C 0.602923 4.103355 -0.410220
H 1.664494 4.426170 -0.329052
H -0.014124 4.918425 0.022465
H 0.353662 4.014745 -1.491455
F 0.048120 -2.170543 -0.128992
