33

Ir 0.104237 0.112289 -0.059010
P -2.187696 -0.003239 0.001604
C -5.321574 -0.198112 0.114508
C -4.735342 1.044895 -0.186635
C -3.353336 1.259692 -0.265628
C -3.164465 -1.398495 0.348954
C -4.562734 -1.356590 0.369911
H -6.419421 -0.267154 0.154414
H -5.404048 1.903455 -0.369162
H -2.961872 2.262760 -0.498812
H -2.613123 -2.328456 0.560533
H -5.103614 -2.290188 0.601390
C 2.154425 0.053470 -0.026966
C 4.323244 -0.706037 -0.448627
C 4.370964 0.357434 0.661631
H 4.517744 -1.732036 -0.057975
H 4.852838 1.305353 0.325003
C 2.515680 1.461541 1.994810
H 2.867617 2.504047 1.825937
H 1.408593 1.451601 2.018782
H 2.907110 1.108759 2.972360
C 2.445436 -1.466647 -1.969464
H 2.398050 -2.526521 -1.637219
H 1.418592 -1.145515 -2.229802
H 3.103678 -1.383597 -2.859227
N 2.935956 -0.606129 -0.913666
N 2.947956 0.583477 0.931529
H 4.902310 0.014380 1.573197
H 5.040562 -0.513670 -1.272817
C 0.068034 1.872066 -0.585179
N 0.043059 3.074271 -0.824988
H 0.026328 3.514715 -1.748220
Cl 0.230414 -2.198602 0.633369
