30

Ir -0.000603 -0.050477 -0.004681
N -2.047990 -0.090461 0.021721
C -2.748135 -0.904946 -0.814847
C -4.149202 -0.904167 -0.802271
N -4.881905 -0.120148 0.004609
C -4.178161 0.672823 0.829635
C -2.780485 0.700534 0.854917
H -2.146508 -1.574473 -1.450135
H -4.692278 -1.574244 -1.490854
H -4.745197 1.325791 1.515937
H -2.219797 1.351515 1.539579
N 2.046328 -0.096654 -0.033655
C 2.746649 -0.895711 0.817659
C 4.147596 -0.900722 0.799724
N 4.880260 -0.137041 -0.026529
C 4.176291 0.640853 -0.865642
C 2.778624 0.673681 -0.886422
H 2.144724 -1.548586 1.470091
H 4.690724 -1.558057 1.500456
H 4.743149 1.276813 -1.567873
H 2.217873 1.312609 -1.582383
C 0.002194 1.840826 -0.033827
N 0.002775 3.036623 -0.080186
C 0.027076 4.433556 0.088909
H -0.917466 4.889721 -0.276247
H 0.862577 4.884352 -0.487700
H 0.157226 4.711069 1.157942
N -0.006125 -2.172540 0.032208
O 0.508016 -2.779533 0.990861
O -0.525102 -2.806540 -0.906180
