29

Ir -0.089138 0.069979 -0.017204
As 2.269492 -0.168622 0.011133
C 3.425278 1.377175 -0.305268
C 2.876324 -1.511015 -1.274473
C 2.938436 -0.900844 1.699210
H 3.244059 1.749539 -1.331586
H 4.492200 1.106367 -0.186391
H 3.150473 2.173815 0.412107
H 2.753594 -1.113489 -2.299576
H 2.193200 -2.370975 -1.136250
H 3.929963 -1.801562 -1.097010
H 2.741928 -0.175884 2.511361
H 4.021332 -1.126327 1.638198
H 2.361207 -1.824780 1.894015
N -2.196298 -0.063185 0.001545
C -4.990703 -0.383272 0.027549
C -4.138749 -1.491144 -0.094973
C -2.754475 -1.299057 -0.103420
C -3.018046 1.011488 0.125308
C -4.410199 0.889048 0.141464
H -6.084141 -0.507896 0.036029
H -4.537380 -2.512344 -0.184169
H -2.018230 -2.117826 -0.178711
H -2.522677 1.989474 0.213045
H -5.026883 1.793752 0.244849
C -0.046123 1.883595 -0.070390
N -0.019788 3.116540 0.005149
H 0.011416 3.734894 -0.811475
F -0.057502 -1.961107 0.035112
