38

Ir -0.299567 -0.157070 -0.060322
P 1.968992 -0.150065 0.034905
C 2.643851 -1.144409 1.454195
C 2.781713 1.508704 0.256147
C 2.821540 2.386246 -0.999193
C 2.889821 -0.844889 -1.429280
C 2.496900 -2.262827 -1.845176
C 2.146710 -0.663463 2.819582
H 2.312811 -2.188788 1.273469
H 3.754061 -1.130321 1.389315
H 2.208601 2.010843 1.061647
H 3.805617 1.323451 0.648466
H 2.697015 -0.138222 -2.262598
H 3.975110 -0.777332 -1.193036
H 1.830296 2.426513 -1.491755
H 3.099581 3.425862 -0.734385
H 3.561257 2.018342 -1.738418
H 2.647275 -2.997443 -1.028069
H 1.429402 -2.300546 -2.139878
H 3.104290 -2.598049 -2.710750
H 2.491177 0.365957 3.047414
H 1.037912 -0.659749 2.846693
H 2.514708 -1.325640 3.629735
N -2.444975 -0.124743 -0.077490
C -4.576713 0.567368 -0.272912
C -3.256356 0.944082 -0.414466
N -4.547612 -0.747169 0.155469
C -3.248102 -1.134987 0.264257
H -5.357505 -1.330876 0.365370
H -5.511730 1.111255 -0.436422
H -2.817283 1.899312 -0.717372
H -2.915685 -2.130182 0.579683
C -0.286565 -1.987028 0.012513
N -0.332651 -3.203526 0.220613
H -0.257300 -3.911587 -0.517145
N -0.410131 1.886296 -0.057234
C -0.253305 3.066955 0.146205
O -0.110897 4.245254 0.326064
