32

Ir -0.000019 0.102995 -0.016227
P 2.321586 -0.076462 0.009513
C 3.010373 -1.043403 -1.399412
C 2.956999 -0.983773 1.481612
C 3.316099 1.475707 -0.004239
H 2.522100 -2.037675 -1.397622
H 4.110297 -1.157472 -1.312855
H 2.759733 -0.532923 -2.349308
H 2.466929 -1.976870 1.504052
H 2.673880 -0.432639 2.399055
H 4.059014 -1.102820 1.439141
H 3.092943 2.039395 -0.930996
H 4.402739 1.260602 0.044697
H 3.019993 2.103172 0.858749
P -2.321477 -0.076742 0.009448
C -2.956461 -0.983231 1.482257
C -3.010433 -1.044630 -1.398721
C -3.316244 1.475257 -0.005092
H -2.465976 -1.976105 1.505408
H -4.058422 -1.102866 1.439918
H -2.673570 -0.431286 2.399281
H -2.521969 -2.038811 -1.396463
H -2.760130 -0.534686 -2.348997
H -4.110316 -1.158818 -1.311828
H -3.019764 2.103510 0.857188
H -4.402816 1.259994 0.044597
H -3.093703 2.038180 -0.932468
C -0.000366 1.987429 -0.019475
N -0.000685 3.200915 0.082952
H -0.000918 3.967395 -0.588922
C 0.000274 -1.949569 -0.026966
N 0.000449 -3.132994 -0.028292
