48

Ir 1.286084 0.026117 0.007240
P -0.985996 0.008911 -0.008743
C -1.052733 -1.536017 2.329649
C -1.701406 -1.298256 1.098256
C -1.760713 -0.351277 -1.654249
C -1.035912 -1.106934 -2.598931
C -1.613988 -1.431889 -3.835639
C -2.914173 -1.000466 -4.144782
C -3.638135 -0.241245 -3.211046
C -3.066392 0.082779 -1.970582
C -1.880421 1.535067 0.524599
C -1.771687 2.692977 -0.276981
C -2.435026 3.870092 0.094597
C -3.200893 3.911064 1.272010
C -3.303689 2.766261 2.076228
C -2.647723 1.580663 1.704788
C -2.852513 -2.040392 0.770144
C -3.348441 -3.005468 1.662178
C -2.705373 -3.232227 2.889326
C -1.557074 -2.493598 3.222419
H -0.137607 -0.968204 2.565993
H -0.010593 -1.426833 -2.358223
H -1.038598 -2.020647 -4.566635
H -3.362681 -1.250324 -5.118870
H -4.655310 0.106141 -3.449946
H -3.635971 0.684866 -1.246107
H -1.159330 2.672371 -1.189661
H -2.343711 4.766916 -0.537226
H -3.717216 4.839016 1.563027
H -3.901862 2.789838 3.000257
H -2.740186 0.686490 2.338674
H -3.360923 -1.872993 -0.191083
H -4.243962 -3.586473 1.392403
H -3.096925 -3.989508 3.586195
H -1.046455 -2.667906 4.182355
N 3.429506 0.020408 -0.013111
C 5.569765 -0.644535 -0.234232
C 4.253251 -1.048648 -0.324389
N 5.523286 0.686499 0.138241
C 4.222437 1.058450 0.265056
H 6.324966 1.298111 0.292609
H 6.510190 -1.177508 -0.402464
H 3.839323 -2.027616 -0.586091
H 3.852206 2.059786 0.518922
C 1.254351 -1.800247 -0.005013
N 1.268379 -3.025010 -0.118625
H 1.121639 -3.685523 0.650863
Cl 1.419717 2.426772 0.068392
