32

Ir -0.146614 -0.145768 -0.022345
P -2.376408 -0.495151 -0.020667
C -2.891973 -1.526735 1.414178
C -2.906986 -1.510336 -1.463095
C -3.528305 0.940718 -0.015377
H -2.193916 -2.387177 1.422047
H -3.943005 -1.870294 1.329410
H -2.752942 -0.951687 2.349733
H -2.254013 -2.405158 -1.465106
H -2.729721 -0.942946 -2.396770
H -3.973117 -1.808867 -1.393879
H -3.348295 1.541822 0.897213
H -4.586558 0.611213 -0.040230
H -3.312593 1.576904 -0.895779
N 1.985040 -0.164017 -0.018708
C 4.792053 -0.330962 0.008433
C 3.999903 -1.466266 0.236085
C 2.606850 -1.349756 0.214658
C 2.748666 0.935174 -0.243806
C 4.145875 0.890126 -0.237573
H 5.890722 -0.395565 0.020578
H 4.452566 -2.449590 0.430927
H 1.912962 -2.194848 0.367309
H 2.201267 1.870189 -0.433114
H 4.714938 1.812047 -0.426823
C -0.299821 1.670716 -0.140984
N -0.405763 2.878754 -0.299982
C -0.616788 4.073143 0.454896
H -1.681878 4.390492 0.396979
H -0.011727 4.908777 0.044750
H -0.355568 3.949929 1.530121
F -0.049503 -2.173549 0.128833
