34

Ir -0.139801 -0.122681 0.070553
C -2.181370 -0.343943 0.072667
C -4.406515 -0.075910 0.467300
C -4.263280 -1.114542 -0.416730
H -5.301179 0.358110 0.923820
H -5.009597 -1.761235 -0.888055
C -2.309743 -2.263712 -1.526609
H -2.190566 -1.850356 -2.548387
H -1.322673 -2.536599 -1.101397
H -2.969501 -3.151154 -1.562843
C -2.828645 1.461583 1.683379
H -1.846883 1.261587 2.150409
H -2.767714 2.432601 1.153472
H -3.615056 1.507068 2.460280
N -3.128269 0.377349 0.757403
N -2.904395 -1.266900 -0.638798
P 2.140574 -0.141529 0.080148
C 5.263260 -0.452946 0.093075
C 4.715984 0.840225 0.006558
C 3.341009 1.112559 -0.008091
C 3.071987 -1.606532 0.177262
C 4.469851 -1.614873 0.175121
H 6.358670 -0.561031 0.097944
H 5.412479 1.694164 -0.051864
H 2.984920 2.153071 -0.073164
H 2.479474 -2.532403 0.244478
H 4.983597 -2.589363 0.241689
C -0.228954 1.693900 -0.192600
N -0.282189 2.905969 -0.305926
C -0.242410 3.952262 -1.275732
H 0.576350 4.667366 -1.045694
H -1.188703 4.534934 -1.262824
H -0.086776 3.567125 -2.307987
F -0.004873 -2.140874 0.301440
