39

Ir 0.010292 0.037271 -0.148652
P -2.321372 -0.142030 0.120782
C -2.806877 -1.096874 1.640632
C -3.069418 -1.087769 -1.282614
C -2.994568 -0.346923 -2.619651
C -3.329016 1.411585 0.246882
C -3.124921 2.211232 1.537140
C -2.433180 -2.581984 1.609789
H -2.293397 -0.581075 2.478605
H -3.900426 -0.950360 1.788919
H -2.447537 -2.007644 -1.315074
H -4.111736 -1.369468 -1.016600
H -3.053850 2.024082 -0.637021
H -4.394547 1.118037 0.119395
H -1.949293 -0.044681 -2.838160
H -3.342022 -0.997426 -3.447931
H -3.623163 0.567285 -2.631382
H -3.429476 1.634921 2.433707
H -2.067055 2.514096 1.661803
H -3.738343 3.135236 1.516844
H -3.065232 -3.142853 0.891938
H -1.379574 -2.716563 1.290964
H -2.580780 -3.036525 2.610506
P 2.273816 -0.031570 -0.076941
C 5.393320 -0.245980 0.269593
C 4.622368 -1.418342 0.374748
C 3.228952 -1.452719 0.241691
C 3.453953 1.244715 -0.144373
C 4.824703 1.018670 0.026424
H 6.484512 -0.319012 0.392118
H 5.145363 -2.367161 0.583638
H 2.685326 -2.402735 0.367292
H 3.077116 2.264766 -0.318504
H 5.501073 1.888574 -0.030485
C 0.020726 1.877886 -0.011305
N 0.051532 3.101249 0.117192
H -0.025557 3.771293 -0.654865
O -0.163579 -1.973929 -0.474854
H 0.661098 -2.366952 -0.812385
