31

Ir -0.004063 -0.214062 0.043478
As -2.450624 -0.216449 -0.047450
C -3.378230 -1.920701 0.209443
C -3.149396 0.407929 -1.765075
C -3.358456 0.971744 1.216017
H -2.956688 -2.663595 -0.493957
H -4.465853 -1.804947 0.037901
H -3.197220 -2.271487 1.243433
H -2.805332 -0.278434 -2.561512
H -2.732734 1.415237 -1.955134
H -4.256055 0.449781 -1.746368
H -3.057870 0.699068 2.245031
H -4.456239 0.878197 1.103040
H -3.046906 2.014581 1.015391
P 2.253575 -0.041801 0.009911
C 5.369224 0.270317 -0.091326
C 4.577578 1.433135 -0.032698
C 3.178930 1.427906 0.015952
C 3.449171 -1.299167 -0.067796
C 4.822441 -1.025994 -0.108741
H 6.463704 0.379975 -0.127379
H 5.089808 2.410224 -0.025264
H 2.607637 2.368150 0.057912
H 3.087923 -2.339253 -0.092881
H 5.516893 -1.881670 -0.160327
C 0.073851 -2.057523 0.115612
N 0.102451 -3.280834 0.067346
H 0.132637 -3.940258 0.848506
N -0.186258 1.827579 -0.002083
C -0.686897 2.925886 0.057873
O -1.168314 4.023585 0.116076
