29

Ir -0.091846 0.092485 0.018822
As 2.267623 -0.175298 -0.015902
C 2.807545 -1.531724 -1.313483
C 3.023494 -0.888330 1.645462
C 3.421388 1.358633 -0.398728
H 2.133441 -2.388513 -1.119913
H 3.871029 -1.813182 -1.187364
H 2.628799 -1.148010 -2.335506
H 2.473692 -1.821169 1.872205
H 2.860468 -0.161169 2.463044
H 4.104721 -1.100073 1.530540
H 3.153055 1.762406 -1.393551
H 4.489002 1.065184 -0.386135
H 3.235474 2.142972 0.359693
N -2.202410 -0.064179 0.022462
C -4.996069 -0.397808 -0.050942
C -4.133827 -1.480293 -0.279720
C -2.750561 -1.282156 -0.235595
C -3.035720 0.985774 0.244894
C -4.427000 0.856514 0.218119
H -6.088612 -0.526305 -0.084534
H -4.523602 -2.485567 -0.497725
H -1.999868 -2.082405 -0.375877
H -2.554015 1.954061 0.441582
H -5.051450 1.741880 0.406337
C -0.048372 1.912492 -0.124624
O 0.006876 3.089828 -0.177190
O -0.016250 -1.967810 0.163667
H -0.164928 -2.202140 1.101328
