32

Ir 0.005433 -0.151308 0.006193
N 2.060418 -0.193575 0.017150
C 4.888223 -0.285864 0.050984
C 4.123183 -1.226867 0.754718
C 2.727866 -1.157164 0.716114
C 2.808083 0.716005 -0.670169
C 4.204343 0.700702 -0.675981
H 5.987830 -0.320623 0.065808
H 4.597040 -2.028314 1.339950
H 2.092206 -1.889205 1.231859
H 2.240844 1.471815 -1.229432
H 4.743850 1.464305 -1.255056
N -2.050835 -0.207817 0.010876
C -4.876648 -0.324936 0.027056
C -4.120017 -1.181958 -0.784761
C -2.724670 -1.102040 -0.768676
C -2.789514 0.621532 0.801850
C -4.185312 0.590683 0.835230
H -5.976009 -0.369968 0.032494
H -4.600375 -1.924980 -1.437871
H -2.094219 -1.771726 -1.368697
H -2.215702 1.324271 1.420834
H -4.718299 1.286238 1.499760
C -0.013150 1.759349 0.077499
N -0.041832 2.960803 0.167220
C -0.072179 4.312863 -0.236812
H 0.810757 4.861987 0.155226
H -0.977170 4.822418 0.158269
H -0.078816 4.413470 -1.345445
C 0.011662 -2.182480 -0.103805
C 0.014483 -3.423361 -0.170377
H 0.017358 -4.503647 -0.228516
