29

Ir -0.176297 -0.397918 -0.000041
P 2.042602 -0.929865 -0.000045
C 2.971042 -0.256460 1.441001
C 2.970478 -0.256312 -1.441390
C 2.477953 -2.718134 -0.000097
H 2.899301 0.849043 1.430689
H 4.037705 -0.556255 1.392993
H 2.516409 -0.634406 2.376634
H 2.899150 0.849215 -1.430569
H 2.515080 -0.633676 -2.376883
H 4.037074 -0.556488 -1.394212
H 2.043778 -3.201567 0.896305
H 3.577798 -2.854894 -0.000011
H 2.043919 -3.201561 -0.896570
N -2.167462 0.329606 -0.000240
C -4.536175 0.516958 0.004259
O -3.863922 1.813108 -0.003088
C -2.551485 1.566478 -0.002858
C -3.380961 -0.512112 -0.000076
H -3.374135 -1.165348 -0.895603
H -3.371761 -1.169946 0.891924
H -5.184486 0.468956 -0.892938
H -5.172717 0.473477 0.910211
H -1.865352 2.426133 -0.005062
C -0.670172 -2.160758 -0.000007
O -0.961992 -3.300172 0.000136
N 0.446676 1.553613 0.000144
C 1.189255 2.501395 0.000451
S 2.197954 3.757662 0.000846
