34

Ir 0.331080 0.051297 -0.025176
C -1.649152 -0.013329 -0.005209
C -3.839334 0.413144 0.474612
C -3.803233 -0.675785 -0.354895
H -4.683630 0.935890 0.933826
H -4.609938 -1.295830 -0.757103
C -1.988030 -2.018173 -1.468252
H -1.042603 -1.704162 -1.948981
H -1.773033 -2.909499 -0.846169
H -2.747242 -2.256539 -2.237474
C -2.114850 1.922491 1.514967
H -1.078601 1.734949 1.854019
H -2.129993 2.872459 0.943250
H -2.790946 2.000782 2.387854
N -2.522733 0.802065 0.681526
N -2.467793 -0.918035 -0.643410
N 2.600343 -0.046759 0.056446
C 3.059564 -1.173322 -0.791721
C 3.238853 1.201470 -0.414680
C 3.002154 -0.288797 1.463944
H 2.952352 1.392724 -1.465134
H 4.349462 1.123572 -0.347989
H 2.894610 2.052979 0.200296
H 2.549471 -1.232769 1.817927
H 2.632276 0.540347 2.095781
H 4.113120 -0.350233 1.547151
H 2.734999 -0.999158 -1.834771
H 2.602714 -2.112956 -0.431466
H 4.171605 -1.258871 -0.759826
C 0.273937 1.781250 -0.746239
N 0.191394 2.941682 -1.124440
H 0.143410 3.330649 -2.067586
C 0.339849 -1.872430 0.715205
N 0.355969 -2.989431 1.105388
