36

Ir 0.000144 -0.415726 -0.114186
C 2.064828 -0.312294 -0.071728
C 4.256118 -0.707179 0.425342
C 4.204061 0.425796 -0.343267
H 5.106593 -1.232372 0.870389
H 4.999997 1.088444 -0.696184
C 2.388143 1.767959 -1.438610
H 1.390872 1.505825 -1.835791
H 2.290876 2.686034 -0.824773
H 3.089503 1.947301 -2.276186
C 2.554934 -2.327777 1.324022
H 1.531355 -2.170670 1.712209
H 2.551064 -3.222705 0.668907
H 3.255824 -2.488572 2.164992
N 2.946914 -1.138605 0.582649
N 2.867353 0.646564 -0.640375
C -2.064571 -0.312950 -0.071731
C -4.255854 -0.708382 0.425064
C -4.204011 0.424377 -0.343869
H -5.106234 -1.233754 0.870080
H -5.000100 1.086612 -0.697219
C -2.388433 1.767010 -1.439008
H -2.292584 2.685459 -0.825491
H -1.390552 1.505657 -1.835150
H -3.089150 1.945334 -2.277346
C -2.554510 -2.328057 1.324800
H -2.555213 -3.224215 0.671348
H -1.529105 -2.172357 1.708716
H -3.252436 -2.485729 2.168844
N -2.946542 -1.139348 0.582743
N -2.867321 0.645523 -0.640745
C 0.000492 -2.125680 -0.767636
O 0.000673 -3.231560 -1.172471
N -0.000275 1.501209 0.598119
C -0.000712 2.682177 0.801029
S -0.001312 4.285358 1.017599
