75

Ir 0.029283 -0.257978 0.005976
P -2.319884 -0.253556 0.004655
C -2.988943 -2.973295 0.224360
C -3.151211 -1.803203 -0.550060
C -3.024920 1.058482 -1.081288
C -2.332999 1.380198 -2.267905
C -2.826573 2.376110 -3.121863
C -4.010013 3.059387 -2.797243
C -4.699148 2.744026 -1.615931
C -4.209781 1.747707 -0.756856
C -3.067023 0.074810 1.661432
C -2.378440 0.929927 2.548108
C -2.935176 1.241016 3.797359
C -4.174637 0.698868 4.175477
C -4.861408 -0.154930 3.297408
C -4.313053 -0.466290 2.042915
C -3.900332 -1.861481 -1.742224
C -4.479636 -3.073439 -2.152886
C -4.321161 -4.232063 -1.376970
C -3.576413 -4.177985 -0.186200
H -2.398585 -2.940832 1.152404
H -1.386378 0.864287 -2.494821
H -2.272675 2.632870 -4.037571
H -4.388430 3.851933 -3.460975
H -5.619463 3.286813 -1.351058
H -4.745219 1.518264 0.176687
H -1.405886 1.349623 2.249058
H -2.392063 1.910930 4.481337
H -4.606261 0.940777 5.159029
H -5.832896 -0.583397 3.588740
H -4.856017 -1.136761 1.359513
H -4.034546 -0.954369 -2.350475
H -5.064196 -3.107734 -3.085193
H -4.779693 -5.179791 -1.698910
H -3.447009 -5.082822 0.427447
P 2.374247 -0.155316 0.025254
C 2.488453 -1.437349 2.525477
C 3.147496 -0.542245 1.656614
C 3.096656 1.473577 -0.432963
C 2.844634 2.573239 0.416141
C 3.285781 3.854227 0.059598
C 3.992689 4.047698 -1.139030
C 4.257722 2.955447 -1.979074
C 3.807756 1.670649 -1.633188
C 3.164630 -1.343690 -1.148353
C 2.514825 -1.582847 -2.378464
C 3.085319 -2.450538 -3.321681
C 4.301132 -3.096253 -3.039776
C 4.945798 -2.868047 -1.813436
C 4.383437 -1.992901 -0.870220
C 4.387592 0.012498 2.039472
C 4.961484 -0.330315 3.273817
C 4.305229 -1.227399 4.132301
C 3.069947 -1.779630 3.755542
H 1.512875 -1.854859 2.232848
H 2.283492 2.430267 1.351104
H 3.053295 4.707579 0.713450
H 4.331713 5.056164 -1.421545
H 4.814415 3.101412 -2.917643
H 4.009625 0.821313 -2.302712
H 1.549250 -1.088750 -2.576481
H 2.573915 -2.628080 -4.280449
H 4.745180 -3.783194 -3.776748
H 5.895054 -3.376998 -1.585541
H 4.892545 -1.821858 0.090275
H 4.900648 0.722763 1.373043
H 5.926776 0.110410 3.567248
H 4.755388 -1.491511 5.101732
H 2.547893 -2.477135 4.428396
C 0.141093 -2.100032 -0.112243
N 0.238472 -3.318428 -0.098088
H 0.302483 -3.966212 -0.885923
N -0.109580 1.773377 0.075038
C -0.300382 2.958984 0.021112
S -0.538766 4.550256 -0.039338
