33

Ir 0.308120 -0.159255 0.028602
N 2.496492 -0.297179 0.053260
C 3.170364 1.024758 0.064975
C 2.910191 -1.040542 1.276750
C 2.951408 -1.044196 -1.152443
H 2.548127 -0.497579 2.169115
H 4.020975 -1.125090 1.313504
H 2.455927 -2.047079 1.263523
H 2.624896 -0.500889 -2.058215
H 2.490804 -2.048077 -1.154314
H 4.062286 -1.134911 -1.148957
H 2.849000 1.597014 0.953853
H 2.892770 1.590109 -0.842985
H 4.276085 0.892417 0.090551
N -1.730224 -0.186458 0.025059
C -4.561448 -0.267625 0.036821
C -3.811079 -1.196110 -0.699369
C -2.416032 -1.130307 -0.685967
C -2.464623 0.711464 0.745141
C -3.860664 0.700842 0.771146
H -5.661059 -0.300117 0.041970
H -4.296018 -1.985624 -1.291506
H -1.798365 -1.852778 -1.235182
H -1.886531 1.451378 1.313932
H -4.386477 1.454190 1.375741
C 0.296296 1.740455 -0.031325
N 0.238631 2.943520 -0.041006
C 0.194795 4.263778 -0.537879
H -0.629183 4.838300 -0.063456
H 0.037359 4.282544 -1.639252
H 1.141819 4.801554 -0.315346
C 0.298027 -2.204862 0.019705
N 0.322091 -3.388258 -0.011689
