31

Ir -0.106296 -0.091256 0.019905
N -2.186259 -0.214909 0.016063
C -2.763121 -1.431905 -0.182331
C -4.155764 -1.566478 -0.191309
N -4.999537 -0.535948 -0.009181
C -4.414785 0.656774 0.190673
C -3.027110 0.835699 0.207275
H -2.050385 -2.263446 -0.317654
H -4.601238 -2.563085 -0.355999
H -5.075422 1.527430 0.348296
H -2.563839 1.818638 0.374039
As 2.255081 -0.367607 0.012622
C 3.447642 1.183749 0.009786
C 2.848716 -1.444484 -1.507001
C 2.874465 -1.436936 1.528559
H 3.255298 1.776310 -0.905092
H 4.509025 0.869766 0.037751
H 3.213948 1.809014 0.892604
H 2.711862 -0.865459 -2.439598
H 2.173081 -2.321103 -1.522750
H 3.905373 -1.757269 -1.398092
H 2.703032 -0.873985 2.465207
H 3.945563 -1.699828 1.426695
H 2.246476 -2.348225 1.534503
C -0.041440 1.733649 0.138066
N 0.009447 2.942500 0.295889
C 0.171801 4.172979 -0.406746
H 1.221813 4.533031 -0.330479
H -0.471290 4.963974 0.032704
H -0.080293 4.080578 -1.487065
F -0.075989 -2.120933 -0.127280
