55

Ir -1.137183 -0.091107 0.031010
P 1.206089 0.032886 -0.039766
C 1.838541 -2.701354 -0.002800
C 2.057091 -1.463724 0.642812
C 1.934925 1.421401 0.936913
C 1.163452 1.965658 1.983347
C 1.683946 2.996097 2.780933
C 2.973293 3.494323 2.533523
C 3.742014 2.960985 1.485116
C 3.226617 1.928175 0.687307
C 2.002405 0.225043 -1.704119
C 1.402227 1.089526 -2.645103
C 2.003675 1.292257 -3.896336
C 3.200409 0.635334 -4.226596
C 3.801563 -0.224395 -3.294075
C 3.208758 -0.428419 -2.037408
C 2.833645 -1.430922 1.816289
C 3.382444 -2.616183 2.336169
C 3.169674 -3.840694 1.685817
C 2.398007 -3.879694 0.510366
H 1.221117 -2.735686 -0.914888
H 0.145744 1.573415 2.145686
H 1.074171 3.419851 3.593705
H 3.378665 4.308509 3.154154
H 4.749091 3.356983 1.282067
H 3.828084 1.520193 -0.139658
H 0.467531 1.613197 -2.392122
H 1.526702 1.971367 -4.619749
H 3.665707 0.793715 -5.211927
H 4.741253 -0.741866 -3.542680
H 3.690623 -1.103174 -1.314033
H 3.008795 -0.474147 2.330755
H 3.984006 -2.577640 3.257485
H 3.605542 -4.766416 2.092182
H 2.231671 -4.836139 -0.009929
C -3.185415 -0.071939 -0.031605
C -5.338211 -0.514614 -0.624974
C -5.358314 0.529642 0.262057
H -6.151858 -1.030177 -1.143852
H -6.193663 1.109377 0.666144
C -3.606559 1.862332 1.490826
H -2.677162 1.545440 1.999589
H -3.378331 2.769493 0.896904
H -4.397068 2.070760 2.236300
C -3.529305 -1.925397 -1.667083
H -3.918241 -1.777994 -2.693822
H -2.422735 -1.866432 -1.678176
H -3.847170 -2.919138 -1.290945
N -4.005617 -0.866493 -0.791853
N -4.040361 0.780731 0.615622
C -1.102643 -1.751281 0.930276
N -1.117878 -2.726676 1.653911
H -0.757597 -3.676738 1.592389
C -1.258340 1.812607 -0.731264
N -1.402785 2.924810 -1.107567
