32

Ir -0.155488 0.083164 0.000035
P 2.095515 -0.038220 0.000003
C 2.802492 -0.937830 -1.444591
C 2.802521 -0.938064 1.444422
C 3.035426 1.547868 0.000077
H 2.343545 -1.944846 -1.472355
H 3.906210 -1.016853 -1.367923
H 2.527551 -0.400494 -2.372603
H 2.342232 -1.944440 1.473012
H 2.529220 -0.399884 2.372428
H 3.906067 -1.018677 1.366813
H 2.761407 2.136983 -0.896326
H 4.127896 1.359244 0.000261
H 2.761107 2.137137 0.896281
N -2.414851 -0.077184 -0.000016
C -3.076562 1.247609 -0.000170
C -2.828894 -0.823747 -1.213334
C -2.829050 -0.823537 1.213377
H -2.499610 -0.269847 -2.112212
H -3.937912 -0.941950 -1.235713
H -2.342751 -1.816256 -1.212134
H -2.500036 -0.269388 2.112199
H -2.342786 -1.815983 1.212503
H -3.938061 -0.941860 1.235547
H -2.773047 1.816510 -0.898035
H -2.773039 1.816735 0.897547
H -4.185325 1.129490 -0.000152
C -0.129752 1.954471 0.000043
O -0.057207 3.126320 -0.000050
C -0.088567 -1.962247 -0.000022
C -0.024990 -3.203145 -0.000018
H 0.013009 -4.284493 -0.000074
