29

Ir -0.015858 0.070082 -0.013807
P -2.268535 -0.046993 0.031117
C -2.943197 -0.929045 1.504485
C -3.028522 -0.970004 -1.374520
C -3.215776 1.537009 0.035312
H -2.482473 -1.935558 1.531368
H -4.048638 -1.010563 1.458693
H -2.642890 -0.382497 2.419180
H -2.566644 -1.975959 -1.402071
H -2.786130 -0.448693 -2.320692
H -4.128931 -1.052161 -1.260284
H -2.894422 2.150693 0.898843
H -4.307112 1.349958 0.092597
H -2.985487 2.100044 -0.889843
N 2.121696 -0.008958 0.005913
C 4.300807 0.550027 0.140215
C 3.010791 1.040440 0.167388
N 4.173642 -0.815000 -0.040714
C 2.850676 -1.121098 -0.118060
H 4.937014 -1.488483 -0.103936
H 5.272517 1.043670 0.234675
H 2.656726 2.068226 0.294534
H 2.427874 -2.125308 -0.245971
C -0.004556 1.947012 -0.077131
N 0.011806 3.172318 -0.043359
H -0.030290 3.829664 -0.825969
C -0.060916 -1.984568 -0.025576
C -0.105103 -3.227202 -0.035046
H -0.147210 -4.308367 -0.040020
