36

Ir -0.171414 0.090604 0.026059
P 1.584605 -1.304588 0.038342
C 2.707298 -1.085020 1.486621
C 2.732602 -1.110723 -1.394279
C 1.249694 -3.118097 0.047865
H 3.055336 -0.034110 1.506038
H 3.580600 -1.766511 1.427630
H 2.138522 -1.281747 2.415669
H 3.116643 -0.072551 -1.409625
H 2.171818 -1.289408 -2.331755
H 3.582762 -1.819692 -1.323407
H 0.618871 -3.367570 0.922627
H 2.195779 -3.694232 0.089859
H 0.692507 -3.388816 -0.869909
N -1.783966 1.684070 0.025083
C -3.150201 1.122324 0.073685
C -1.563378 2.540074 1.214622
C -1.628453 2.489304 -1.209104
H -1.674772 1.928223 2.129251
H -2.300461 3.377265 1.235641
H -0.535042 2.943184 1.181045
H -1.786312 1.839611 -2.090261
H -0.600488 2.892655 -1.247482
H -2.367570 3.324697 -1.226336
H -3.268119 0.503884 0.982150
H -3.318582 0.479701 -0.809972
H -3.908841 1.939670 0.081844
C -1.358758 -1.319347 0.119665
N -2.118372 -2.258772 0.268387
C -2.866061 -3.265723 -0.404948
H -3.890920 -3.342937 0.015825
H -2.388266 -4.261531 -0.272907
H -2.952959 -3.069883 -1.497460
N 1.164256 1.657560 -0.075803
C 2.236529 2.215427 -0.146265
O 3.285031 2.795384 -0.217622
