31

Ir 0.192359 -0.122072 0.015195
N 2.375319 -0.262355 0.068214
C 3.053419 1.055485 0.141614
C 2.765939 -1.056874 1.265998
C 2.840387 -0.961867 -1.161423
H 2.418574 -0.531323 2.174487
H 3.873688 -1.176762 1.300646
H 2.272823 -2.044317 1.213671
H 2.550957 -0.364146 -2.045417
H 2.343355 -1.947389 -1.218362
H 3.947770 -1.084973 -1.136463
H 2.718748 1.597316 1.044389
H 2.792897 1.655517 -0.749065
H 4.157826 0.915691 0.179675
N -1.833299 -0.152813 -0.014958
C -4.119902 0.363872 0.334787
O -3.935162 -0.882634 -0.396381
C -2.613610 -1.027959 -0.575687
C -2.692706 0.788665 0.737570
H -2.480926 0.668973 1.819618
H -2.443228 1.831298 0.462407
H -4.792708 0.162359 1.190743
H -4.615299 1.084834 -0.348884
H -2.257328 -1.898468 -1.143108
C 0.199795 1.703984 0.083270
N 0.164561 2.920178 0.204942
C 0.286152 4.118724 -0.561708
H 1.285752 4.582689 -0.408315
H -0.465999 4.869026 -0.238657
H 0.154060 3.941913 -1.652832
Cl 0.114457 -2.543578 -0.108084
