27

Ir 0.164816 0.068043 -0.000075
N -1.947705 -0.041804 -0.000101
C -2.531624 -1.268914 0.000454
C -3.926188 -1.393862 0.000546
N -4.759681 -0.340317 0.000180
C -4.168237 0.865126 -0.000346
C -2.778100 1.032127 -0.000520
H -1.826780 -2.117834 0.000686
H -4.380326 -2.399997 0.000994
H -4.822456 1.754385 -0.000642
H -2.313010 2.028251 -0.001008
P 2.422198 -0.235932 0.000046
C 2.941278 -1.248294 -1.443256
C 2.940871 -1.249296 1.442807
C 3.536337 1.224076 0.000705
H 2.279388 -2.136481 -1.442928
H 4.005356 -1.552105 -1.372766
H 2.769040 -0.677332 -2.375642
H 2.278820 -2.137364 1.441785
H 2.768580 -0.678855 2.375502
H 4.004894 -1.553308 1.372337
H 3.327494 1.840127 -0.895414
H 4.600921 0.915270 0.000697
H 3.327307 1.839431 0.897260
C 0.265340 1.878226 0.000245
O 0.353482 3.053873 0.000451
F 0.155858 -1.957313 -0.000415
