26

Ir 0.177887 0.021840 0.000112
N -1.853190 -0.081363 -0.000227
C -3.900428 -1.011855 -0.000146
C -2.548626 -1.284748 -0.000321
N -4.013353 0.365337 0.000706
C -2.761092 0.902064 0.000090
H -4.881223 0.900355 0.000024
H -4.772911 -1.671718 0.000090
H -1.986640 -2.224790 -0.000497
H -2.538514 1.973633 0.000464
N 2.321185 -0.239965 0.000157
C 2.659975 -1.035119 1.212761
C 2.659549 -1.034112 -1.213173
C 3.099858 1.020558 0.000528
H 2.037608 -1.947603 -1.204289
H 3.743195 -1.294805 -1.212215
H 2.419004 -0.439415 -2.113452
H 2.843693 1.612522 0.897931
H 2.843648 1.613009 -0.896555
H 4.191701 0.799792 0.000371
H 2.037415 -1.948191 1.203660
H 2.420341 -0.440813 2.113544
H 3.743468 -1.296293 1.210827
C 0.182216 1.825347 -0.000118
O 0.151200 3.009054 -0.000643
F 0.162346 -1.998963 -0.000618
