27

Ir 0.170648 0.066190 -0.019753
P -2.057156 0.009221 -0.000834
C -5.187048 -0.084243 0.050547
C -4.547881 1.154517 0.239196
C -3.158226 1.331000 0.236838
C -3.082880 -1.377042 -0.202513
C -4.478192 -1.282698 -0.157979
H -6.286857 -0.118281 0.069204
H -5.178413 2.045028 0.402329
H -2.724273 2.329318 0.401928
H -2.573627 -2.339297 -0.364797
H -5.057662 -2.211474 -0.295455
N 2.309288 0.021650 0.009943
C 5.118146 -0.061711 0.075542
C 4.353946 -1.033736 0.735399
C 2.957683 -0.965801 0.678767
C 3.048274 0.963677 -0.627937
C 4.445924 0.953195 -0.621583
H 6.217899 -0.093551 0.102625
H 4.827376 -1.852597 1.295944
H 2.312860 -1.725262 1.144220
H 2.483493 1.745657 -1.154008
H 4.993235 1.738905 -1.161870
C 0.142628 1.898506 0.109548
N 0.126061 3.109616 0.290482
H 0.094702 3.851454 -0.412932
Cl 0.228646 -2.323395 -0.217153
