30

Ir 0.000064 0.036334 -0.038659
N -2.040110 -0.030836 -0.061795
C -2.682070 -1.057200 -0.688366
C -4.080054 -1.126202 -0.705533
N -4.871346 -0.210939 -0.122835
C -4.228713 0.793058 0.495967
C -2.834715 0.898097 0.538317
H -2.042382 -1.816718 -1.156914
H -4.571103 -1.968365 -1.222958
H -4.844646 1.562705 0.992955
H -2.328312 1.725026 1.053349
N 2.040190 -0.030585 -0.061732
C 2.834699 0.898531 0.538251
C 4.228702 0.793681 0.495849
N 4.871447 -0.210279 -0.122913
C 4.080263 -1.125739 -0.705428
C 2.682265 -1.056952 -0.688181
H 2.328172 1.725444 1.053191
H 4.844561 1.563480 0.992694
H 4.571401 -1.967881 -1.222808
H 2.042660 -1.816648 -1.156560
C -0.000185 1.898498 -0.142033
N -0.000681 3.098948 -0.243193
C -0.000805 4.462053 0.122523
H -0.895189 4.978809 -0.286816
H 0.892418 4.979446 -0.288542
H 0.000197 4.596976 1.227608
N 0.000051 -1.995508 0.140592
C 0.000211 -3.132446 0.556063
O 0.000352 -4.272232 0.923766
