28

Ir 0.208883 -0.046028 0.000016
N 2.393443 0.036864 0.000323
C 3.036548 -1.303327 0.000801
C 2.849881 0.769669 -1.215545
C 2.849453 0.770292 1.215975
H 2.496002 0.233689 -2.115140
H 3.962223 0.828442 -1.227443
H 2.420626 1.787158 -1.214068
H 2.495229 0.234792 2.115722
H 2.420234 1.787794 1.213809
H 3.961792 0.829035 1.228253
H 2.726570 -1.865590 -0.898359
H 2.726105 -1.865154 0.900075
H 4.144477 -1.195259 0.001050
N -1.830937 0.071829 0.000006
C -4.147465 -0.475956 0.000930
O -3.906915 0.960496 -0.000307
C -2.581429 1.136063 -0.000599
C -2.736045 -1.101801 0.000759
H -2.529304 -1.722276 -0.893467
H -2.528777 -1.721574 0.895343
H -4.744861 -0.720434 -0.899918
H -4.743972 -0.719012 0.902759
H -2.198364 2.166953 -0.001315
C 0.158527 -1.910113 -0.000616
O 0.105298 -3.082796 -0.001390
C 0.241786 2.008855 -0.000357
N 0.250839 3.191580 -0.000766
