29

Ir 0.315057 0.078872 -0.021911
N 2.503179 -0.028691 0.005631
C 3.159406 1.287971 -0.192264
C 2.931026 -0.571844 1.325323
C 2.954327 -0.945989 -1.077165
H 2.592018 0.113608 2.123782
H 4.040989 -0.664842 1.357248
H 2.457141 -1.558667 1.474810
H 2.637641 -0.533187 -2.052820
H 2.474201 -1.930657 -0.932159
H 4.063700 -1.046694 -1.054794
H 2.840825 1.988536 0.600096
H 2.863712 1.705584 -1.171502
H 4.266300 1.170262 -0.161405
N -1.724139 0.037951 -0.022155
C -4.543525 -0.093088 0.012846
C -3.784041 -1.038989 -0.690559
C -2.389888 -0.946518 -0.691239
C -2.462680 0.956509 0.662576
C -3.858566 0.921104 0.698614
H -5.642516 -0.144417 0.026542
H -4.261134 -1.858139 -1.247778
H -1.755616 -1.677240 -1.210057
H -1.892643 1.736137 1.185041
H -4.395614 1.691471 1.270666
C 0.284416 1.885749 -0.235185
N 0.202275 3.114759 -0.237000
H 0.161276 3.704932 -1.073027
Cl 0.275194 -2.315731 0.320557
