27

Ir 0.331239 -0.426616 -0.000248
N 2.440035 -0.291349 -0.000148
C 4.661215 0.548961 0.000547
O 4.606130 -0.914613 0.000322
C 3.317178 -1.245443 -0.000096
C 3.180931 0.992309 0.000293
H 2.889244 1.582966 -0.889293
H 2.888801 1.582612 0.889970
H 5.224390 0.859856 -0.901194
H 5.224048 0.859596 0.902588
H 3.081224 -2.319904 -0.000397
P -1.907082 -0.392878 -0.000144
C -5.031322 -0.334076 0.000379
C -4.332151 0.887438 0.000196
C -2.936832 1.004941 -0.000040
C -2.993156 -1.745954 0.000113
C -4.384195 -1.582753 0.000330
H -6.131414 -0.310875 0.000570
H -4.918337 1.821728 0.000246
H -2.466373 2.000893 -0.000180
H -2.554592 -2.755978 0.000081
H -5.007200 -2.492904 0.000471
C 0.338000 -2.267409 0.000209
O 0.336366 -3.440937 0.000575
N 0.320689 1.601365 -0.000361
C 0.045309 2.772258 -0.000091
S -0.323993 4.337955 0.000233
