39

Ir 0.228252 -0.406639 -0.022174
P -2.068172 -0.379946 -0.002986
C -2.868316 0.115581 -1.605915
C -2.775071 0.819341 1.225726
C -2.274799 0.605427 2.655843
C -2.942308 -1.966665 0.429441
C -2.983245 -3.036905 -0.664904
C -2.406690 1.455105 -2.183418
H -2.643440 -0.707211 -2.316125
H -3.967516 0.101671 -1.431793
H -2.506899 1.836859 0.873260
H -3.881715 0.732704 1.157732
H -2.428906 -2.351396 1.335087
H -3.972443 -1.685993 0.739296
H -1.170423 0.690078 2.698030
H -2.704588 1.369084 3.335048
H -2.553266 -0.392214 3.053253
H -3.579222 -2.710744 -1.540395
H -1.971429 -3.310670 -1.020393
H -3.453998 -3.961869 -0.274243
H -2.604505 2.307254 -1.502818
H -1.317430 1.445103 -2.382919
H -2.931760 1.660285 -3.138343
N 2.368081 -0.213448 -0.040126
C 5.164334 0.099720 -0.081886
C 4.327522 1.017158 -0.732493
C 2.941865 0.831225 -0.689616
C 3.178737 -1.101677 0.589203
C 4.571260 -0.978610 0.591343
H 6.257847 0.221960 -0.098486
H 4.735688 1.881848 -1.275295
H 2.245831 1.534802 -1.167583
H 2.679361 -1.935113 1.103295
H 5.176501 -1.728190 1.121143
C 0.296647 -2.235993 0.001045
O 0.356441 -3.409915 0.053969
N 0.152338 1.629872 0.023362
C -0.186358 2.779228 0.129198
S -0.669777 4.309932 0.261790
