38

Ir -0.013070 0.245293 -0.038513
P 2.341950 0.196842 0.030814
C 3.232670 -0.407068 -1.488959
C 3.001566 -0.861670 1.401993
C 2.521989 -0.426302 2.788466
C 3.168113 1.839919 0.331898
C 3.229762 2.772612 -0.880790
C 3.032289 -1.874514 -1.867816
H 2.886526 0.255199 -2.309753
H 4.309790 -0.178760 -1.324537
H 2.636865 -1.884880 1.174768
H 4.111056 -0.863944 1.323199
H 2.599129 2.315058 1.157107
H 4.189467 1.627833 0.716663
H 1.413901 -0.429436 2.833057
H 2.899393 -1.120995 3.565979
H 2.870533 0.592729 3.054022
H 3.908160 2.387635 -1.667867
H 2.230742 2.916229 -1.337217
H 3.606015 3.771761 -0.580536
H 3.410858 -2.560419 -1.083986
H 1.961672 -2.112331 -2.018702
H 3.581276 -2.101370 -2.804688
P -2.307589 0.205635 -0.048947
C -5.447343 0.213771 -0.049331
C -4.774425 -1.011023 -0.217599
C -3.381641 -1.147611 -0.234251
C -3.377856 1.563546 0.136338
C -4.772437 1.436166 0.120925
H -6.548004 0.214705 -0.048371
H -5.381383 -1.923779 -0.343271
H -2.908832 -2.134187 -0.360557
H -2.914041 2.551808 0.282570
H -5.376771 2.349764 0.252667
C -0.050768 2.079938 -0.033639
N -0.114409 3.294889 0.115749
H -0.130730 4.013903 -0.611416
Br -0.010150 -2.306915 0.071850
