33

Ir 0.269898 -0.201147 -0.062899
N 2.404123 0.006463 0.001580
C 4.617883 -0.415510 0.023191
C 3.365150 -0.984963 -0.092552
N 4.394008 0.938745 0.190416
C 3.051678 1.161005 0.172412
H 5.107646 1.657193 0.312145
H 5.622519 -0.848165 0.004050
H 3.083147 -2.033720 -0.231313
H 2.553995 2.129887 0.294049
C -1.713901 -0.261126 -0.051571
C -3.924973 -0.849999 0.488621
C -3.942167 0.374035 -0.439422
H -4.294564 -1.773086 -0.019502
H -4.241295 1.306707 0.094928
C -2.136228 1.440141 -1.839843
H -2.286151 2.477650 -1.465750
H -1.060898 1.291746 -2.052953
H -2.723066 1.309327 -2.774391
C -2.043598 -1.947828 1.766466
H -2.191716 -2.989983 1.403130
H -0.962521 -1.783205 1.935373
H -2.591643 -1.824352 2.724791
N -2.503079 -0.973977 0.803998
N -2.543852 0.459442 -0.859275
H -4.617999 0.252949 -1.311404
H -4.530026 -0.708839 1.408233
C 0.367045 -1.978521 -0.495310
N 0.446668 -3.195430 -0.676315
H 0.453599 -3.641710 -1.598883
N 0.184325 1.814000 0.416457
C -0.431948 2.839852 0.602075
O -1.004020 3.882333 0.772282
