56

Ir -1.109957 -0.066196 -0.032748
P 1.243561 -0.014648 -0.007865
C 1.371607 -1.023884 -2.614792
C 1.981224 -1.066909 -1.341786
C 2.009964 -0.678922 1.538462
C 1.308132 -1.673353 2.251203
C 1.864810 -2.237247 3.408571
C 3.119532 -1.806110 3.870468
C 3.818125 -0.809624 3.169617
C 3.268304 -0.246950 2.006611
C 2.110952 1.604849 -0.233385
C 1.858524 2.642777 0.691535
C 2.508049 3.877267 0.555627
C 3.407143 4.096332 -0.501238
C 3.657050 3.070319 -1.424768
C 3.014833 1.828261 -1.292214
C 3.101716 -1.895631 -1.140210
C 3.606164 -2.669846 -2.198517
C 3.002696 -2.616800 -3.464859
C 1.885157 -1.789471 -3.671896
H 0.479916 -0.391182 -2.756930
H 0.316634 -1.988058 1.889605
H 1.309818 -3.012158 3.959596
H 3.551350 -2.242702 4.784379
H 4.798378 -0.463183 3.532071
H 3.816260 0.538404 1.463644
H 1.145121 2.495289 1.516644
H 2.297021 4.679255 1.279378
H 3.910215 5.070009 -0.606721
H 4.359272 3.232488 -2.257209
H 3.223538 1.028993 -2.018442
H 3.579623 -1.943126 -0.150063
H 4.478087 -3.320544 -2.029356
H 3.401592 -3.223822 -4.292350
H 1.406931 -1.744154 -4.662805
C -3.159688 -0.041462 -0.043365
C -5.322995 0.376667 -0.599169
C -5.331172 -0.503906 0.451987
H -6.146745 0.839073 -1.151405
H -6.162276 -0.959098 0.998940
C -3.550710 -1.628308 1.841158
H -3.614642 -2.688762 1.523655
H -2.492356 -1.379640 2.050673
H -4.162808 -1.471404 2.750043
C -3.523840 1.525711 -1.952710
H -2.646402 2.096432 -1.588733
H -3.234523 0.930215 -2.841484
H -4.336061 2.225169 -2.225854
N -3.992861 0.649348 -0.883399
N -4.003932 -0.743108 0.778140
C -1.073841 -1.838110 -0.593593
N -1.066137 -3.037928 -0.825566
H -0.903716 -3.517344 -1.713455
N -1.198062 1.927700 0.686931
O -1.149299 2.100682 1.918412
O -1.266250 2.896902 -0.091341
