72

Ir 0.004682 -0.142583 -0.028202
P -2.345505 -0.059544 0.000016
C -3.044311 -2.705463 0.641489
C -3.183649 -1.678182 -0.317190
C -3.074811 1.049705 -1.279533
C -2.412130 1.139031 -2.521808
C -2.954906 1.916975 -3.554032
C -4.152175 2.623198 -3.349226
C -4.805879 2.547247 -2.109156
C -4.272622 1.760769 -1.075352
C -3.103185 0.466311 1.603689
C -2.379339 1.309085 2.472317
C -2.953059 1.729703 3.682045
C -4.246255 1.313987 4.037458
C -4.970042 0.472564 3.176911
C -4.402768 0.047368 1.965701
C -3.914642 -1.929022 -1.494987
C -4.495803 -3.190029 -1.709318
C -4.356420 -4.206038 -0.752010
C -3.629964 -3.959610 0.425424
H -2.472186 -2.521430 1.564181
H -1.456550 0.607872 -2.658909
H -2.430616 1.984343 -4.519561
H -4.572072 3.242948 -4.156556
H -5.737840 3.108495 -1.940339
H -4.786735 1.711636 -0.103849
H -1.370050 1.641962 2.184546
H -2.379599 2.387601 4.353057
H -4.691152 1.643038 4.989386
H -5.983355 0.139870 3.450214
H -4.971537 -0.622310 1.302686
H -4.034031 -1.136157 -2.248155
H -5.064660 -3.375195 -2.633541
H -4.812890 -5.193129 -0.922688
H -3.512197 -4.752510 1.179723
P 2.367413 -0.134544 0.014919
C 2.225605 -0.804518 2.740988
C 3.050150 -0.279195 1.724729
C 3.265978 1.318078 -0.679216
C 3.283052 2.525398 0.054188
C 3.925022 3.656666 -0.468675
C 4.541607 3.602003 -1.729349
C 4.518331 2.407431 -2.465446
C 3.884350 1.268190 -1.944330
C 3.098316 -1.559782 -0.910454
C 2.472290 -1.943697 -2.116041
C 3.002547 -2.988291 -2.887253
C 4.152232 -3.668993 -2.454639
C 4.770247 -3.299811 -1.249221
C 4.250050 -2.247172 -0.479720
C 4.374368 0.102251 2.033434
C 4.866171 -0.053464 3.338405
C 4.043029 -0.586588 4.344420
C 2.723252 -0.959638 4.043916
H 1.184116 -1.070560 2.497245
H 2.793626 2.578481 1.037046
H 3.933581 4.591837 0.111785
H 5.041144 4.493581 -2.138783
H 5.001581 2.355754 -3.453229
H 3.879005 0.334758 -2.526278
H 1.552738 -1.424484 -2.432357
H 2.505938 -3.280012 -3.825304
H 4.562354 -4.496357 -3.054032
H 5.664852 -3.837958 -0.899786
H 4.738917 -1.969912 0.465908
H 5.018787 0.534317 1.252446
H 5.898929 0.248558 3.571412
H 4.430465 -0.703469 5.368355
H 2.070507 -1.367168 4.831041
C 0.029493 -1.971300 0.012584
O 0.059593 -3.143840 0.042296
Br -0.054621 2.395302 -0.101170
