32

Ir 0.187678 -0.214444 0.001496
N 2.342805 -0.503854 -0.024693
C 3.127025 0.720919 -0.300144
C 2.743866 -1.061688 1.293911
C 2.618892 -1.515495 -1.081181
H 2.538093 -0.313067 2.081281
H 3.829122 -1.318953 1.291343
H 2.126131 -1.960559 1.474686
H 2.335682 -1.097125 -2.064636
H 1.998714 -2.406598 -0.869117
H 3.701259 -1.782836 -1.084703
H 2.932586 1.467912 0.490961
H 2.815839 1.148832 -1.270314
H 4.216045 0.485702 -0.326481
N -1.821759 -0.244360 -0.003923
C -4.128789 0.303009 0.071682
O -3.901327 -1.101201 -0.242749
C -2.568147 -1.266962 -0.306318
C -2.721003 0.875402 0.348640
H -2.550486 1.148251 1.409787
H -2.467104 1.758275 -0.269704
H -4.815676 0.352736 0.939389
H -4.626142 0.768539 -0.804464
H -2.166127 -2.250682 -0.586116
C 0.260236 1.603432 -0.253561
N 0.248067 2.812330 -0.466541
C 0.514772 4.027585 0.237932
H -0.313546 4.755142 0.096581
H 1.433502 4.517744 -0.154641
H 0.652137 3.871687 1.332610
O 0.137926 -2.242686 0.309876
H -0.448935 -2.447701 1.061688
