30

Ir -0.000015 0.165953 -0.000309
As 2.415786 -0.032944 0.000037
C 3.508330 1.592338 0.001546
C 3.116164 -1.045142 -1.521020
C 3.114016 -1.046507 1.521186
H 3.260504 2.189153 -0.896907
H 4.587181 1.342764 0.002572
H 3.258614 2.188494 0.899910
H 2.912927 -0.482807 -2.451860
H 2.558566 -2.000814 -1.546092
H 4.203310 -1.226211 -1.411621
H 2.910028 -0.484516 2.452067
H 4.201181 -1.228219 1.412970
H 2.555781 -2.001832 1.545150
As -2.415760 -0.032735 0.000118
C -3.114960 -1.046342 1.520763
C -3.115268 -1.044901 -1.521365
C -3.508205 1.592650 0.001211
H -2.557213 -2.001968 1.544416
H -4.202168 -1.227509 1.412044
H -2.911092 -0.484917 2.452005
H -2.557695 -2.000622 -1.545636
H -2.910992 -0.482817 -2.452138
H -4.202555 -1.225730 -1.412964
H -3.259804 2.188093 0.900418
H -4.587077 1.343171 0.000457
H -3.258993 2.190139 -0.896408
C 0.000302 1.984770 -0.000242
O 0.000605 3.161881 -0.000086
Cl -0.000430 -2.260060 -0.000086
