30

Ir 0.052294 -0.057943 -0.021702
P 2.311773 0.025755 0.029438
C 2.991324 0.892560 1.508627
C 3.081566 0.945700 -1.371733
C 3.237678 -1.570379 0.027386
H 2.541151 1.903700 1.539645
H 4.097560 0.962668 1.465281
H 2.683732 0.344259 2.419847
H 2.632811 1.957680 -1.394019
H 2.832606 0.432282 -2.320482
H 4.182837 1.012763 -1.256910
H 2.905693 -2.185825 0.885581
H 4.330896 -1.397003 0.090054
H 3.004672 -2.124115 -0.902723
N -2.065382 0.065356 -0.013974
C -4.383819 -0.435432 0.126802
O -4.122868 0.992363 -0.020375
C -2.792154 1.135811 -0.062285
C -2.984399 -1.088634 0.057660
H -2.837065 -1.724950 -0.838504
H -2.737032 -1.705783 0.943377
H -5.067652 -0.741683 -0.689196
H -4.896729 -0.584904 1.098731
H -2.378515 2.154038 -0.132088
C 0.025212 -1.937911 -0.048409
N 0.015988 -3.160155 0.030641
H 0.072491 -3.856330 -0.715992
C 0.131499 1.994812 -0.027493
C 0.194760 3.236180 -0.025990
H 0.248046 4.316904 -0.024216
