24

Ir 0.139207 0.066378 -0.017615
N -1.894027 0.020311 -0.006523
C -2.586494 -1.038296 -0.520664
C -3.984959 -1.063310 -0.498551
N -4.738581 -0.075347 0.012186
C -4.047860 0.960733 0.516884
C -2.651504 1.027301 0.519008
H -1.983991 -1.866266 -0.918499
H -4.510697 -1.935418 -0.924806
H -4.625533 1.794839 0.952226
H -2.113326 1.888695 0.936197
N 2.210877 0.026399 -0.006809
C 4.374350 0.627232 0.173639
C 3.074500 1.082164 0.248034
N 4.280838 -0.718011 -0.130267
C 2.969333 -1.053720 -0.235341
H 5.060064 -1.365120 -0.250677
H 5.332628 1.136103 0.311887
H 2.697169 2.086483 0.461921
H 2.569234 -2.056200 -0.426655
C 0.146093 1.873878 -0.257274
N 0.157999 3.103774 -0.289522
H 0.141778 3.676452 -1.138768
Cl 0.166660 -2.321554 0.330921
