30

Ir 0.035582 -0.020569 -0.034087
N 2.162420 0.039114 -0.040477
C 2.800983 1.156569 -0.480131
C 4.198521 1.233692 -0.471266
N 4.992353 0.237287 -0.042599
C 4.349488 -0.860888 0.387106
C 2.954604 -0.975413 0.395180
H 2.124169 1.957416 -0.832046
H 4.691723 2.153057 -0.832640
H 4.964873 -1.703915 0.747338
H 2.453645 -1.886446 0.752310
C -1.960062 0.138126 -0.041371
C -4.188749 -0.260577 -0.313686
C -4.060834 0.920373 0.369409
H -5.078850 -0.797606 -0.654862
H -4.818177 1.613803 0.747278
C -2.131440 2.284075 1.248090
H -1.966550 2.017191 2.311560
H -1.162649 2.537403 0.771523
H -2.828931 3.141046 1.186850
C -2.592923 -1.954447 -1.268658
H -1.611384 -1.836103 -1.764179
H -2.528903 -2.808654 -0.565167
H -3.376506 -2.153559 -2.024145
N -2.903479 -0.719337 -0.562339
N -2.702332 1.153487 0.520175
C -0.050031 -1.712370 0.650615
O -0.138840 -2.813555 1.067903
O 0.163556 1.876577 -0.789998
H -0.560059 2.057340 -1.417417
