34

Ir -0.101915 -0.441677 0.065256
P -2.344109 0.058551 -0.014361
C -5.377570 0.842447 -0.143773
C -5.040416 -0.504951 0.079914
C -3.725300 -0.981380 0.157576
C -3.031282 1.632686 -0.275196
C -4.412616 1.853781 -0.312288
H -6.442169 1.117737 -0.188982
H -5.860598 -1.232537 0.201536
H -3.536260 -2.052010 0.335503
H -2.321408 2.463137 -0.413663
H -4.765394 2.884850 -0.483818
C 1.953428 -0.632256 0.071368
C 4.164996 -0.072351 0.563051
C 4.142781 -0.984844 -0.674532
H 4.407713 0.984250 0.307344
H 4.569385 -1.995022 -0.473291
C 2.217428 -1.768345 -2.132347
H 2.509773 -2.842362 -2.130517
H 1.113108 -1.688663 -2.146525
H 2.626159 -1.293498 -3.049231
C 2.358894 0.579891 2.211649
H 2.518571 1.672940 2.081243
H 1.281159 0.393005 2.378929
H 2.937792 0.228276 3.091010
N 2.772242 -0.143606 1.026453
N 2.705410 -1.091117 -0.952943
H 4.682982 -0.554649 -1.542432
H 4.868622 -0.413667 1.349178
C -0.400341 -2.233377 0.371066
O -0.572808 -3.375923 0.568059
N 0.349913 1.535754 -0.251185
C 1.115253 2.462874 -0.292211
S 2.151099 3.699636 -0.323251
