32

Ir 0.178662 -0.094471 -0.038276
N 2.301821 -0.003361 0.017267
C 4.543737 0.749800 0.286414
O 4.465293 -0.638343 -0.164055
C 3.163111 -0.931316 -0.254063
C 3.072204 1.213433 0.366637
H 2.814209 2.020457 -0.346857
H 2.764268 1.569247 1.368312
H 5.154537 1.308632 -0.449742
H 5.067199 0.754852 1.263781
H 2.909194 -1.956018 -0.562070
C -1.819613 0.008836 -0.024755
C -3.975453 0.858398 -0.367390
C -4.069653 -0.411924 0.492090
H -4.183054 1.782628 0.221484
H -4.520611 -1.268405 -0.063505
C -2.283582 -1.747303 1.688144
H -2.538606 -2.748902 1.272120
H -1.189598 -1.689643 1.847972
H -2.801521 -1.629318 2.663301
C -2.060266 1.859410 -1.678868
H -2.028110 2.853246 -1.180740
H -1.026719 1.583776 -1.962595
H -2.694180 1.921188 -2.588154
N -2.574849 0.838382 -0.792218
N -2.662889 -0.682185 0.790258
H -4.656506 -0.267110 1.422473
H -4.661370 0.849631 -1.239281
C 0.147517 -1.856912 -0.666363
O 0.101853 -2.969086 -1.036812
C 0.137106 1.825862 0.688501
N 0.102501 2.938556 1.085489
