30

Ir -0.028870 0.088440 0.007900
N -2.155391 0.007954 -0.016734
C -2.825548 -0.894760 -0.780295
C -4.225733 -0.938415 -0.783634
N -4.990315 -0.113937 -0.049346
C -4.317849 0.770464 0.705722
C -2.920366 0.845025 0.732788
H -2.204045 -1.598152 -1.355347
H -4.742197 -1.680616 -1.417101
H -4.910729 1.462635 1.329049
H -2.391082 1.585253 1.349836
C 1.970896 0.032008 0.016042
C 4.162544 0.256707 -0.559331
C 4.109188 -0.485856 0.591062
H 5.014903 0.587058 -1.160314
H 4.907056 -0.935359 1.189794
C 2.251648 -1.363582 2.062688
H 1.477412 -0.762606 2.576287
H 1.776119 -2.296246 1.701068
H 3.081638 -1.589546 2.757585
C 2.452188 1.325348 -2.067170
H 1.349078 1.262436 -2.141217
H 2.759480 2.386750 -1.969553
H 2.909827 0.893308 -2.978866
N 2.850490 0.562424 -0.895741
N 2.769739 -0.606493 0.929706
C -0.031657 1.870568 0.409717
N -0.051236 3.032922 0.810432
H -0.054104 3.873497 0.226295
Cl 0.031458 -2.275497 -0.478210
