31

Ir 0.171375 -0.028602 0.030478
C -1.816773 -0.008012 0.000978
C -3.992601 -0.467252 -0.522733
C -3.994946 0.554909 0.389010
H -4.817945 -0.980704 -1.025044
H -4.823014 1.114137 0.834792
C -2.226092 1.853063 1.621888
H -1.227960 1.566047 2.003317
H -2.120688 2.823373 1.097777
H -2.948921 1.939599 2.456570
C -2.210986 -1.840252 -1.655313
H -1.179932 -1.590995 -1.971199
H -2.191433 -2.826614 -1.148286
H -2.880415 -1.885879 -2.535965
N -2.663141 -0.795308 -0.750889
N -2.668609 0.816683 0.701983
N 2.314126 0.046030 -0.013016
C 4.436256 0.783068 -0.192681
C 3.108988 1.161547 -0.219373
N 4.432658 -0.581448 0.033444
C 3.138919 -0.994155 0.135446
H 5.252483 -1.183435 0.106426
H 5.360955 1.354895 -0.314531
H 2.646733 2.141307 -0.384488
H 2.826540 -2.028595 0.314626
C 0.192647 -1.797164 0.651218
N 0.221847 -2.988627 0.959450
H 0.159678 -3.364606 1.910434
C 0.130893 1.917189 -0.636226
C 0.102583 3.092491 -1.039181
H 0.076529 4.109926 -1.406231
