37

Ir -0.173708 0.083137 -0.025742
N -2.304932 0.040381 -0.050256
C -2.978794 -1.002501 -0.598825
C -4.380129 -1.024393 -0.611570
N -5.133857 -0.044176 -0.089338
C -4.455682 0.978264 0.456373
C -3.056670 1.037855 0.481340
H -2.366218 -1.825960 -0.994183
H -4.904841 -1.880780 -1.069645
H -5.043304 1.799755 0.902048
H -2.518606 1.890685 0.919444
P 2.115783 -0.021397 0.018278
C 3.022827 1.603197 0.089687
C 2.939102 -0.857253 -1.429407
C 2.710328 -2.362853 -1.569768
C 2.761805 -0.933911 1.498237
C 2.365045 -0.291544 2.829370
C 3.061873 2.386059 -1.225442
H 2.516448 2.196227 0.878659
H 4.052044 1.386871 0.450397
H 2.559554 -0.320638 -2.323996
H 4.024278 -0.622497 -1.349623
H 2.319076 -1.947796 1.414117
H 3.865013 -1.025233 1.390077
H 1.630856 -2.607688 -1.590840
H 3.181366 -2.734325 -2.502843
H 3.155097 -2.926227 -0.725055
H 2.797888 0.722324 2.953066
H 1.262131 -0.200580 2.900575
H 2.715812 -0.909494 3.680772
H 3.672011 1.874420 -1.996251
H 2.045995 2.531698 -1.642441
H 3.505495 3.389996 -1.065724
C -0.170523 1.902654 -0.164775
N -0.220910 3.128854 -0.084378
H -0.227306 3.787577 -0.867934
Cl -0.229487 -2.302811 0.316697
