28

Ir 0.043300 -0.424861 -0.061242
N 2.080175 -0.290198 -0.041359
C 2.714217 0.781172 -0.597356
C 4.108637 0.893234 -0.555767
N 4.906478 -0.024055 0.014274
C 4.272313 -1.076044 0.557534
C 2.881783 -1.225277 0.542882
H 2.076414 1.544531 -1.061578
H 4.590340 1.774363 -1.013631
H 4.892356 -1.852040 1.039149
H 2.385688 -2.095126 0.993788
N -2.024122 -0.438012 -0.056503
C -4.837655 -0.352748 0.003062
C -4.104212 0.586884 -0.734976
C -2.708585 0.516383 -0.744230
C -2.735808 -1.351228 0.658310
C -4.131844 -1.338166 0.709149
H -5.937112 -0.317781 0.028592
H -4.601170 1.383261 -1.307088
H -2.095009 1.239348 -1.297773
H -2.146451 -2.106248 1.196212
H -4.652294 -2.100244 1.306747
C 0.100665 -2.263553 -0.168748
N 0.128102 -3.486459 -0.096621
H 0.147199 -4.166177 -0.861176
N -0.052568 1.602695 0.095038
C -0.180014 2.790809 0.246831
S -0.346095 4.380866 0.424279
