28

Ir -0.002313 0.010831 0.039201
N -2.043758 -0.093104 -0.004252
C -4.854911 -0.352357 -0.132129
C -4.012377 -1.351892 -0.640534
C -2.626150 -1.194879 -0.566695
C -2.865089 0.877387 0.489050
C -4.256926 0.781084 0.440600
H -5.949452 -0.449928 -0.185869
H -4.419046 -2.260719 -1.107747
H -1.916238 -1.951177 -0.933530
H -2.364546 1.755774 0.916887
H -4.861835 1.601228 0.853842
N 2.065769 -0.091562 -0.000456
C 4.878477 -0.342301 -0.086750
C 4.066403 -1.415363 0.308443
C 2.678430 -1.261806 0.342213
C 2.855157 0.948633 -0.391557
C 4.247719 0.858508 -0.445006
H 5.974320 -0.438362 -0.117244
H 4.499417 -2.384964 0.595417
H 1.967736 -2.065775 0.604725
H 2.331305 1.875106 -0.663265
H 4.825437 1.735998 -0.770158
C -0.004178 1.841631 -0.049158
N -0.051098 3.071673 -0.146569
H 0.095514 3.717558 0.636463
O 0.023791 -2.024222 0.215251
H -0.630541 -2.315904 0.878073
