28

Ir 0.180563 -0.009814 -0.003822
N -1.844301 -0.103539 -0.004502
C -3.922632 -0.934523 -0.265979
C -2.577911 -1.211214 -0.412462
N -3.992129 0.351924 0.231593
C -2.723435 0.829156 0.383449
H -4.843544 0.867457 0.452244
H -4.814393 -1.531810 -0.477290
H -2.060738 -2.104405 -0.777269
H -2.461112 1.830375 0.740372
N 2.341587 -0.197425 0.000746
C 2.735827 -0.763940 1.318635
C 2.704468 -1.165161 -1.070124
C 3.062568 1.076452 -0.222331
H 2.126232 -2.092781 -0.901645
H 3.799537 -1.372783 -1.045737
H 2.428815 -0.736595 -2.051383
H 2.785686 1.802832 0.562905
H 2.770440 1.496114 -1.202026
H 4.163642 0.905092 -0.204432
H 2.161120 -1.697115 1.464225
H 2.471809 -0.043978 2.115110
H 3.832783 -0.964473 1.339720
C 0.140285 1.808790 -0.136647
N 0.044827 3.044352 -0.055889
H -0.083483 3.624262 -0.893720
O 0.239246 -2.046003 0.200099
H -0.458994 -2.363082 0.801524
