30

Ir -0.000001 -0.331120 -0.000022
P -2.338401 -0.200164 -0.000122
C -3.034638 0.699443 -1.447482
C -3.034809 0.699390 1.447191
C -3.259627 -1.796419 -0.000185
H -2.564626 1.701929 -1.477592
H -4.137395 0.791318 -1.372949
H -2.763792 0.157076 -2.373904
H -2.564827 1.701881 1.477427
H -2.764088 0.156998 2.373632
H -4.137562 0.791246 1.372502
H -2.974848 -2.381483 -0.896196
H -4.355511 -1.628072 -0.000010
H -2.974599 -2.381693 0.895608
P 2.338305 -0.200483 -0.000099
C 3.034980 0.698991 1.447135
C 3.034844 0.699051 -1.447365
C 3.259096 -1.797004 -0.000244
H 2.564484 1.701242 1.477786
H 4.137633 0.791468 1.371873
H 2.765072 0.156252 2.373610
H 2.565230 1.701730 -1.477338
H 2.763918 0.156979 -2.373928
H 4.137633 0.790517 -1.372693
H 2.974044 -2.382107 0.895653
H 4.355043 -1.629079 -0.000338
H 2.973875 -2.382005 -0.896152
C -0.000324 -2.151977 0.000257
O -0.000527 -3.328342 0.000611
Br 0.000256 2.228847 0.000207
