40

Ir 0.070800 0.008918 -0.007747
P -2.256518 -0.086132 -0.004958
C -2.989886 -0.705619 1.589383
C -2.856384 -1.286140 -1.280179
C -2.591656 -0.827378 -2.716097
C -3.210936 1.472185 -0.335571
C -3.156307 2.518047 0.781741
C -2.660913 -2.167857 1.905453
H -2.579662 -0.034437 2.372515
H -4.088185 -0.528108 1.550259
H -2.268314 -2.200588 -1.052992
H -3.932839 -1.498602 -1.099001
H -2.794888 1.887037 -1.277248
H -4.260418 1.170298 -0.548567
H -1.519650 -0.573282 -2.848421
H -2.845702 -1.630833 -3.437332
H -3.189568 0.065805 -2.991414
H -3.605070 2.142180 1.723187
H -2.116618 2.831120 0.998226
H -3.721398 3.425730 0.486902
H -3.220433 -2.859856 1.244037
H -1.582002 -2.366570 1.742718
H -2.934128 -2.411543 2.952366
As 2.498302 -0.106496 0.026213
C 3.306249 -1.888494 0.215961
C 3.394558 0.901607 1.449621
C 3.423664 0.574803 -1.564435
H 2.975848 -2.339985 1.171472
H 4.411081 -1.814251 0.206219
H 2.972640 -2.529007 -0.623368
H 3.060200 0.506990 2.427734
H 3.075517 1.958738 1.369714
H 4.496685 0.829789 1.364474
H 3.086490 -0.004365 -2.444887
H 4.523386 0.497733 -1.454447
H 3.130347 1.632772 -1.705483
C 0.173004 1.836316 -0.025714
O 0.280736 3.012836 -0.039373
O -0.131756 -2.026404 -0.035851
H 0.698692 -2.493422 0.160029
