34

Ir 0.349223 0.024101 0.016356
P 2.667598 -0.241009 0.049395
C 3.300906 -1.183599 -1.397447
C 3.235610 -1.228802 1.492997
C 3.712990 1.273486 0.096612
H 2.724058 -2.127065 -1.453336
H 4.384687 -1.398745 -1.302037
H 3.110633 -0.603865 -2.321132
H 2.658996 -2.174103 1.492409
H 3.001682 -0.678229 2.424425
H 4.323072 -1.440397 1.440594
H 3.511167 1.880216 -0.807512
H 4.790761 1.016951 0.136982
H 3.438769 1.874513 0.985236
P -1.932183 0.089115 0.020901
C -5.073179 0.169132 0.049615
C -4.429517 -1.077243 -0.064467
C -3.040047 -1.248460 -0.089095
C -2.972006 1.476906 0.152073
C -4.368980 1.382466 0.153340
H -6.173401 0.195195 0.059793
H -5.057921 -1.980824 -0.139295
H -2.615920 -2.260745 -0.179005
H -2.485063 2.460609 0.243242
H -4.951015 2.315473 0.242902
C 0.460320 1.882977 0.068731
N 0.536536 3.085564 0.167115
C 0.632276 4.368675 -0.431564
H 1.642046 4.802441 -0.266264
H -0.100472 5.068924 0.021927
H 0.445584 4.331332 -1.527849
N 0.297390 -2.026751 -0.065436
C -0.135423 -3.153371 -0.126694
O -0.543035 -4.280471 -0.187663
