28

Ir 0.165100 0.167169 -0.023804
P -2.074319 0.076166 -0.003799
C -5.198933 -0.048271 0.040427
C -4.472409 -1.213717 0.348976
C -3.075089 -1.292507 0.368602
C -3.192877 1.360598 -0.336242
C -4.580129 1.172938 -0.281559
H -6.298314 -0.093505 0.055084
H -5.037471 -2.127958 0.597306
H -2.557010 -2.225840 0.637153
H -2.779621 2.347198 -0.597944
H -5.224116 2.039658 -0.506688
N 2.300755 0.102066 0.042116
C 5.102041 0.054387 0.097871
C 4.392158 -0.654617 -0.880064
C 2.992828 -0.610983 -0.880152
C 2.983546 0.789118 0.992534
C 4.379428 0.786716 1.052661
H 6.202291 0.036764 0.118936
H 4.909086 -1.247773 -1.647875
H 2.380026 -1.185255 -1.591602
H 2.373240 1.349253 1.715679
H 4.886182 1.356659 1.844390
C 0.126478 2.022828 -0.142736
O 0.092836 3.187198 -0.240533
N 0.239500 -1.955911 0.026074
O 0.778888 -2.543626 -0.928077
O -0.243756 -2.579287 0.981883
