29

Ir 0.286107 0.290196 0.029920
P 2.627632 0.296220 -0.032174
C 3.309262 -0.503101 -1.541872
C 3.422248 -0.616730 1.353158
C 3.453440 1.942401 0.001492
H 2.895020 -1.528959 -1.592705
H 4.417560 -0.532115 -1.513541
H 2.968149 0.058754 -2.432656
H 3.008323 -1.643971 1.357757
H 3.156445 -0.126425 2.309508
H 4.524642 -0.641967 1.234936
H 3.077046 2.558333 -0.837840
H 4.554115 1.835010 -0.075240
H 3.198314 2.458580 0.947194
P -2.001840 0.157054 0.010699
C -5.136854 0.020409 -0.050189
C -4.410888 -1.178494 0.080210
C -3.013720 -1.250948 0.119810
C -3.130160 1.471227 -0.139834
C -4.517289 1.279014 -0.155834
H -6.236169 -0.029094 -0.072596
H -4.976878 -2.122550 0.155518
H -2.496924 -2.218710 0.217653
H -2.710438 2.485207 -0.234755
H -5.161611 2.168500 -0.259965
C 0.209264 2.124649 0.083450
N 0.155601 3.345985 0.013762
H 0.121469 4.018064 0.783904
Br 0.458366 -2.258152 -0.016216
