45

Ir 0.141029 -0.089662 -0.026383
P -2.205466 -0.188807 0.003317
C -2.910905 0.448875 1.605180
C -3.012580 -1.860812 -0.150112
C -3.055783 -2.442027 -1.565946
C -3.129444 0.816859 -1.267474
C -2.748029 2.297029 -1.320960
C -2.384993 -0.309798 2.826232
H -2.608310 1.515839 1.663277
H -4.021267 0.419181 1.545057
H -2.411843 -2.525809 0.504067
H -4.032688 -1.779107 0.286003
H -2.908920 0.334454 -2.242251
H -4.218579 0.685494 -1.081502
H -2.033323 -2.507292 -1.986812
H -3.475158 -3.469056 -1.543325
H -3.692216 -1.843517 -2.249152
H -2.952499 2.816430 -0.362139
H -1.668094 2.413742 -1.540907
H -3.320972 2.823716 -2.111647
H -2.696019 -1.374476 2.817135
H -1.275717 -0.285401 2.839946
H -2.759031 0.140637 3.768567
C 2.189374 -0.108800 -0.026636
C 4.346906 -0.614336 0.489401
C 4.369253 0.198370 -0.614647
H 5.162411 -1.082096 1.049457
H 5.206898 0.583207 -1.204076
C 2.606659 1.321399 -2.024611
H 1.501817 1.243095 -2.068046
H 2.901008 2.380108 -1.869971
H 3.043780 0.953614 -2.973932
C 2.524687 -1.623809 1.919746
H 1.685209 -1.104666 2.419855
H 2.135534 -2.575456 1.507671
H 3.345149 -1.808628 2.638247
N 3.014248 -0.782537 0.835071
N 3.045924 0.494587 -0.913019
C 0.081746 1.674069 0.486608
N 0.052504 2.809171 0.930345
C 0.015986 4.180468 0.546142
H 0.533578 4.813780 1.296591
H -1.033074 4.545349 0.478207
H 0.497765 4.354909 -0.442808
Cl 0.304193 -2.437968 -0.620006
