39

Ir -0.264582 0.317542 -0.011782
P 2.078234 0.052094 0.026983
C 2.880938 -0.480355 -1.566048
C 2.663133 -1.200311 1.264676
C 2.238622 -0.879578 2.699523
C 3.074199 1.562699 0.478342
C 3.188123 2.635283 -0.608513
C 2.472392 -1.855766 -2.095081
H 2.617590 0.309112 -2.300635
H 3.980906 -0.418446 -1.406794
H 2.211422 -2.160793 0.940891
H 3.767418 -1.287337 1.164469
H 2.590444 1.978975 1.386339
H 4.082345 1.205802 0.783874
H 1.134911 -0.793669 2.765222
H 2.562440 -1.683783 3.391103
H 2.677123 0.071243 3.065935
H 3.749865 2.271983 -1.492099
H 2.195992 2.985499 -0.952871
H 3.729797 3.520138 -0.216563
H 2.768973 -2.670898 -1.405186
H 1.375285 -1.927307 -2.228282
H 2.960490 -2.049948 -3.072094
P -2.608134 0.370538 -0.046301
C -3.356415 -0.477159 -1.499197
C -3.397377 2.036472 -0.072946
C -3.402577 -0.451437 1.396748
H -3.029781 0.036674 -2.423908
H -4.463826 -0.475943 -1.438565
H -2.971546 -1.515388 -1.518376
H -3.053723 2.589680 -0.968451
H -3.081412 2.606065 0.822482
H -4.502912 1.954677 -0.089168
H -3.019554 -1.489397 1.445835
H -4.507600 -0.450860 1.302059
H -3.104133 0.078140 2.322141
C -0.168634 2.132763 0.037160
O -0.144977 3.308878 0.091745
Br -0.524109 -2.230889 0.010790
