35

Ir -0.357379 0.088953 -0.031420
N -2.635615 -0.046589 0.023584
C -3.284513 1.171322 -0.504545
C -3.041711 -1.209168 -0.800809
C -3.060115 -0.255522 1.427717
H -2.713057 -1.044711 -1.844356
H -4.149656 -1.340008 -0.777024
H -2.542358 -2.114939 -0.409612
H -2.747453 0.615798 2.033703
H -2.557688 -1.158454 1.821751
H -4.168117 -0.372126 1.489912
H -2.956268 1.350687 -1.544765
H -2.989307 2.044697 0.105710
H -4.394865 1.067173 -0.479422
C 1.612006 0.036396 -0.041543
C 3.779473 -0.766971 -0.423876
C 3.862112 0.501291 0.440540
H 4.010240 -1.689046 0.160724
H 4.282085 1.369834 -0.121558
C 2.068061 1.785615 1.678033
H 2.330628 2.793568 1.280548
H 0.970896 1.722805 1.816141
H 2.571684 1.655021 2.659631
C 1.861801 -1.783674 -1.722512
H 1.838826 -2.781974 -1.233144
H 0.822956 -1.509415 -1.990005
H 2.486926 -1.833142 -2.638826
N 2.375889 -0.766303 -0.832964
N 2.457174 0.736301 0.768429
H 4.473189 0.365465 1.356845
H 4.456982 -0.743066 -1.302317
C -0.338877 1.772964 -0.731118
N -0.300029 2.867363 -1.295146
H -0.284451 3.774476 -0.820068
Cl -0.309080 -2.121819 0.957458
