33

Ir 0.105953 -0.220437 0.012583
As -2.249678 -0.325278 0.034837
C -3.111411 0.461568 1.610459
C -3.079164 -2.105345 -0.042121
C -3.184779 0.612560 -1.414298
H -2.781698 -0.094662 2.508162
H -4.215578 0.432736 1.524748
H -2.758566 1.507394 1.695473
H -2.696483 -2.717901 0.796772
H -2.810220 -2.591690 -0.999874
H -4.181006 -2.021816 0.030711
H -2.876409 1.675218 -1.385725
H -4.284086 0.534037 -1.300971
H -2.867381 0.179053 -2.381439
N 2.232304 -0.192952 0.033941
C 5.046801 -0.216401 0.022434
C 4.313119 -1.343995 -0.373900
C 2.915427 -1.301058 -0.355633
C 2.940002 0.897801 0.425945
C 4.337455 0.922495 0.433011
H 6.147438 -0.224022 0.013962
H 4.815279 -2.266534 -0.700641
H 2.264437 -2.155003 -0.616442
H 2.346531 1.770085 0.735588
H 4.856420 1.834726 0.761651
C -0.041358 1.615263 0.119903
N -0.175688 2.828468 0.262466
C -0.270815 3.966386 -0.606919
H 0.536761 4.696259 -0.383192
H -1.231797 4.500752 -0.443433
H -0.203050 3.694393 -1.684726
O 0.360738 -2.226306 -0.126848
H -0.453463 -2.739013 -0.262501
