26

Ir -0.189057 0.064151 -0.003857
N -2.318484 -0.027128 -0.004459
C -2.983170 -1.129594 0.430922
C -4.384637 -1.168216 0.434770
N -5.147585 -0.149204 0.012187
C -4.482001 0.931240 -0.424182
C -3.084176 1.009255 -0.436295
H -2.372747 -1.984728 0.754274
H -4.898295 -2.074643 0.798442
H -5.077083 1.787849 -0.785074
H -2.563837 1.907889 -0.794751
P 2.051079 -0.017688 -0.005704
C 5.172915 -0.144711 -0.001166
C 4.449061 -1.349973 -0.071000
C 3.052100 -1.433135 -0.080085
C 3.166284 1.310132 0.071666
C 4.553513 1.116297 0.066810
H 6.272332 -0.190913 0.000121
H 5.015662 -2.294815 -0.122199
H 2.537980 -2.405179 -0.137171
H 2.752023 2.328859 0.127293
H 5.196825 2.010571 0.119464
C -0.152767 1.943676 0.143845
O -0.091819 3.106266 0.232358
C -0.157306 -1.971106 -0.147876
N -0.139072 -3.151175 -0.202187
