37

Ir -0.538985 -0.211668 0.059250
N -2.654080 0.642201 -0.040968
C -3.364705 -0.016260 -1.161438
C -3.347158 0.344991 1.232702
C -2.658554 2.106882 -0.258472
H -3.377321 -0.747905 1.394944
H -4.390344 0.741398 1.216659
H -2.792172 0.808893 2.069159
H -2.134117 2.345568 -1.200646
H -2.115347 2.606784 0.563397
H -3.705747 2.486177 -0.302957
H -3.383332 -1.109901 -1.000936
H -2.827164 0.189247 -2.105658
H -4.410978 0.363748 -1.243009
C 1.329335 -0.857939 0.094303
C 3.626331 -0.895128 0.553883
C 3.301427 -2.004709 -0.457191
H 4.172869 -0.042597 0.086599
H 3.380976 -3.024426 -0.009543
C 1.231076 -2.440324 -1.841194
H 1.071299 -3.505224 -1.557484
H 0.245477 -1.966963 -2.010651
H 1.822428 -2.408097 -2.780638
C 2.143561 0.535134 2.009614
H 2.569124 1.515130 1.697898
H 1.064502 0.666918 2.213935
H 2.657245 0.194079 2.933470
N 2.292106 -0.461463 0.971097
N 1.911941 -1.704856 -0.801454
H 3.951402 -1.979775 -1.355995
H 4.223353 -1.250654 1.418725
C -1.186975 -1.901264 0.377845
N -1.627369 -3.047136 0.464833
H -1.807083 -3.561994 1.331441
N 0.235469 1.647030 -0.310172
C 1.029685 2.543005 -0.422369
S 2.097263 3.747578 -0.541903
