34

Ir 0.331589 0.040225 -0.028851
C -1.644316 0.008945 -0.029416
C -3.829198 0.454768 0.446845
C -3.806936 -0.529919 -0.505891
H -4.668085 0.948924 0.945829
H -4.623027 -1.069204 -0.996016
C -1.993030 -1.770234 -1.749371
H -1.149841 -1.330696 -2.315921
H -1.610963 -2.665812 -1.220713
H -2.819470 -2.040143 -2.433849
C -2.074199 1.779583 1.681204
H -1.058406 1.506409 2.024491
H -2.022108 2.777681 1.200956
H -2.774944 1.807776 2.537504
N -2.507002 0.767594 0.729392
N -2.472787 -0.785230 -0.789017
N 2.616197 -0.000826 -0.027478
C 3.077423 -1.149895 -0.838976
C 3.195257 1.235820 -0.599514
C 3.088631 -0.136551 1.370270
H 2.854459 1.355530 -1.643956
H 4.309685 1.190296 -0.579436
H 2.852947 2.113007 -0.021645
H 2.654053 -1.045481 1.823225
H 2.738494 0.734946 1.953967
H 4.203053 -0.187273 1.407655
H 2.712558 -1.028301 -1.875892
H 2.652618 -2.086348 -0.435846
H 4.191803 -1.213847 -0.839945
C 0.270279 1.755274 -0.699492
N 0.172222 2.953541 -0.982498
H 0.091156 3.293115 -1.947942
S 0.135423 -2.122543 1.038270
H 1.402997 -2.629503 1.060021
