31

Ir 0.346497 -0.223040 0.043834
N 2.520940 0.000073 0.011571
C 3.253781 -1.286278 0.115810
C 2.896756 0.655230 -1.270992
C 2.926156 0.869259 1.149268
H 2.591532 0.005665 -2.111747
H 3.997748 0.823013 -1.307365
H 2.363285 1.618363 -1.352535
H 2.649686 0.373696 2.098110
H 2.383743 1.828348 1.077664
H 4.025978 1.045100 1.125201
H 2.967066 -1.948973 -0.720077
H 2.990916 -1.784980 1.066047
H 4.351851 -1.103645 0.086509
N -1.688300 -0.262527 0.053892
C -4.509921 -0.188581 0.016108
C -3.773476 0.717755 0.792575
C -2.378063 0.652411 0.793556
C -2.404812 -1.145215 -0.698637
C -3.800915 -1.136541 -0.737062
H -5.609535 -0.158246 -0.000812
H -4.269368 1.482917 1.407038
H -1.763345 1.342416 1.385749
H -1.816274 -1.871845 -1.274347
H -4.320002 -1.874639 -1.365478
C 0.397404 -2.052319 0.087706
N 0.371351 -3.276843 -0.035454
H 0.363027 -3.956913 0.729983
N 0.247802 1.827342 -0.068181
C -0.076595 2.974480 -0.280120
O -0.366378 4.122039 -0.470150
