49

Ir 1.177695 -0.156715 -0.011373
P -1.099318 0.039789 0.006346
C -1.875808 -2.464964 0.990108
C -2.083976 -1.518032 -0.036239
C -1.729899 1.015998 -1.425828
C -1.020323 0.948061 -2.642351
C -1.489879 1.639756 -3.768951
C -2.663194 2.407460 -3.686211
C -3.366822 2.484636 -2.472750
C -2.903351 1.792485 -1.343250
C -1.761418 0.935431 1.482499
C -1.023744 2.034979 1.974347
C -1.510979 2.763176 3.069429
C -2.723741 2.403763 3.681892
C -3.455884 1.310021 3.193956
C -2.979357 0.575256 2.095676
C -3.013634 -1.795533 -1.057279
C -3.726685 -3.005910 -1.049637
C -3.521459 -3.941140 -0.024083
C -2.595238 -3.667290 0.996839
H -1.142112 -2.258367 1.785003
H -0.089458 0.358883 -2.683249
H -0.929829 1.585791 -4.715160
H -3.027344 2.955118 -4.569283
H -4.281663 3.093098 -2.402270
H -3.452526 1.861518 -0.391653
H -0.074076 2.300075 1.479553
H -0.933177 3.619352 3.450934
H -3.098361 2.976253 4.544691
H -4.405842 1.022407 3.670621
H -3.556958 -0.282902 1.719910
H -3.180889 -1.064776 -1.862525
H -4.448260 -3.216565 -1.853952
H -4.081202 -4.889093 -0.021104
H -2.424672 -4.399606 1.800653
N 3.313735 -0.037458 0.010828
C 6.111762 0.248315 0.075291
C 5.271059 1.370328 0.102718
C 3.884632 1.194085 0.069294
C 4.125722 -1.125612 -0.014893
C 5.519190 -1.021723 0.015232
H 7.206365 0.359778 0.100742
H 5.679129 2.390494 0.150304
H 3.158337 2.024437 0.085894
H 3.629675 -2.105364 -0.060027
H 6.125775 -1.938570 -0.008251
C 1.146535 -1.968925 -0.028056
O 1.157164 -3.147091 -0.048668
F 1.222198 1.869943 -0.034804
