49

Ir 1.162329 -0.028798 0.011900
P -1.130179 -0.002206 -0.007571
C -1.247483 -1.516792 2.346177
C -1.881466 -1.274109 1.108531
C -1.879430 -0.351859 -1.662439
C -1.131917 -1.085774 -2.606019
C -1.688645 -1.405457 -3.853726
C -2.991420 -0.990044 -4.172992
C -3.737712 -0.250372 -3.240821
C -3.186481 0.069472 -1.990380
C -1.977391 1.555891 0.507478
C -1.912015 2.680781 -0.344345
C -2.538031 3.878830 0.025121
C -3.222629 3.973421 1.248484
C -3.282627 2.861084 2.101131
C -2.664395 1.654576 1.733257
C -3.062187 -1.972216 0.787182
C -3.602106 -2.897450 1.694680
C -2.974494 -3.127308 2.929280
C -1.796559 -2.434478 3.253726
H -0.309647 -0.986938 2.579812
H -0.102312 -1.385307 -2.354245
H -1.095704 -1.976164 -4.584851
H -3.424616 -1.236144 -5.154819
H -4.756456 0.085073 -3.489371
H -3.771841 0.658889 -1.268065
H -1.363476 2.619021 -1.294751
H -2.481488 4.749504 -0.646004
H -3.709741 4.917715 1.537023
H -3.818015 2.926337 3.060854
H -2.724359 0.786091 2.405495
H -3.559523 -1.802879 -0.179281
H -4.519705 -3.445606 1.430903
H -3.400083 -3.854868 3.637539
H -1.294266 -2.616557 4.216198
N 3.304416 0.010156 0.022564
C 6.113768 0.086599 0.028509
C 5.367141 1.021272 0.758775
C 3.969458 0.957314 0.730449
C 4.025841 -0.895213 -0.684166
C 5.423652 -0.887511 -0.708305
H 7.213959 0.115628 0.032455
H 5.855396 1.806988 1.353091
H 3.337963 1.687729 1.255819
H 3.446734 -1.644242 -1.242657
H 5.956292 -1.643334 -1.303107
C 1.143736 -1.849075 0.158001
O 1.165026 -3.022406 0.228958
Cl 1.289617 2.340487 -0.215875
