30

Ir -0.111316 -0.132348 -0.041855
N -2.165196 -0.166303 -0.058631
C -4.421088 -0.789524 0.309140
O -4.298578 0.595106 -0.136032
C -2.981450 0.832624 -0.221987
C -3.015188 -1.374348 0.107492
H -2.929393 -1.989659 -0.812530
H -2.631507 -1.986257 0.945818
H -5.211351 -1.276132 -0.293156
H -4.735858 -0.770817 1.374490
H -2.673106 1.864967 -0.433909
N 1.941067 -0.155328 -0.010517
C 4.766546 -0.212945 0.041296
C 4.037489 -1.136434 -0.720200
C 2.639905 -1.084011 -0.724966
C 2.653502 0.740344 0.729946
C 4.048755 0.741450 0.779633
H 5.866541 -0.233860 0.059571
H 4.540827 -1.908267 -1.320422
H 2.027289 -1.804605 -1.281874
H 2.057509 1.467276 1.297807
H 4.560660 1.490143 1.401451
C -0.102048 1.718080 -0.249819
N -0.055463 2.916666 -0.447607
C -0.094986 4.228665 0.098122
H -0.814404 4.865302 -0.459773
H 0.899372 4.717740 0.011676
H -0.389043 4.231511 1.172103
S -0.003048 -2.526095 0.376438
H -0.790279 -2.968556 -0.647866
