27

Ir 0.206752 0.080916 -0.018249
N 2.390248 -0.007697 0.028231
C 3.033675 1.329645 -0.045105
C 2.819844 -0.663668 1.295496
C 2.859175 -0.816579 -1.132126
H 2.471624 -0.056285 2.151057
H 3.930398 -0.748049 1.322113
H 2.356140 -1.664574 1.354873
H 2.542953 -0.319666 -2.067710
H 2.392099 -1.816664 -1.081393
H 3.969343 -0.905161 -1.110234
H 2.708371 1.947427 0.811211
H 2.738090 1.835057 -0.982066
H 4.141435 1.221296 -0.019872
N -1.827194 -0.009575 -0.045862
C -4.128230 0.441009 0.323942
O -3.904190 -0.835921 -0.342623
C -2.580062 -0.979043 -0.472456
C -2.718485 1.056002 0.464370
H -2.441472 1.295460 1.509341
H -2.573893 1.974112 -0.140420
H -4.619145 0.231231 1.295872
H -4.818395 1.036771 -0.305070
H -2.196618 -1.914983 -0.901597
C 0.166372 1.889099 -0.135468
O 0.108879 3.065340 -0.212212
Cl 0.187442 -2.329397 0.137604
