37

Ir 0.256716 0.035475 -0.047262
P -2.019241 0.000062 0.052765
C -2.696941 1.202941 1.299283
C -2.838569 -1.598664 0.543495
C -2.961885 -2.655409 -0.557084
C -2.925944 0.463756 -1.507452
C -2.532218 1.809865 -2.116762
C -2.192462 0.943283 2.720896
H -2.374554 2.208913 0.958051
H -3.807068 1.170659 1.241581
H -2.218972 -1.992494 1.374738
H -3.835677 -1.330731 0.957178
H -2.714443 -0.355038 -2.225739
H -4.014544 0.422509 -1.280873
H -1.965740 -2.901503 -0.973311
H -3.389330 -3.589335 -0.137768
H -3.628984 -2.330786 -1.381133
H -2.709776 2.654180 -1.419884
H -1.457178 1.815848 -2.385841
H -3.118867 2.008757 -3.036935
H -2.523638 -0.043295 3.104550
H -1.083616 0.956751 2.744772
H -2.566992 1.717784 3.420965
N 2.386534 0.053672 -0.070499
C 4.655322 -0.608854 -0.168724
O 4.489939 0.740725 0.373319
C 3.168819 0.950364 0.435919
C 3.246952 -0.996912 -0.658125
H 2.890238 -1.987219 -0.313898
H 3.136322 -0.964027 -1.762146
H 5.025431 -1.252442 0.656741
H 5.423203 -0.563893 -0.964340
H 2.830399 1.888156 0.900748
C 0.221492 1.853874 -0.158664
N 0.258348 3.083884 -0.080008
H 0.208500 3.718253 -0.883374
Cl 0.418569 -2.356336 0.195527
