35

Ir 0.301558 0.018460 -0.013563
P -1.962456 -0.152413 0.019436
C -2.770954 0.709732 1.454077
C -2.564808 -1.902163 0.163879
C -2.259687 -2.786383 -1.048561
C -2.908464 0.496440 -1.445639
C -2.710116 1.982459 -1.749282
C -2.244072 0.241874 2.812924
H -2.558141 1.790207 1.309445
H -3.871967 0.577500 1.367367
H -2.054304 -2.309385 1.060228
H -3.654327 -1.855177 0.384990
H -2.576395 -0.119291 -2.307072
H -3.981299 0.257763 -1.271249
H -1.164787 -2.820537 -1.206737
H -2.619692 -3.820205 -0.868309
H -2.754834 -2.423303 -1.972208
H -3.025507 2.629667 -0.905864
H -1.647977 2.211831 -1.962466
H -3.307388 2.280636 -2.635072
H -2.499191 -0.818949 3.011620
H -1.138836 0.331787 2.849629
H -2.674517 0.848470 3.635660
N 2.427952 -0.063257 -0.022410
C 4.496663 -0.937364 -0.031603
C 3.151180 -1.243397 -0.014340
N 4.571212 0.444180 -0.050061
C 3.304521 0.942142 -0.044298
H 5.425134 1.002093 -0.065580
H 5.388656 -1.570843 -0.032525
H 2.610321 -2.196249 0.001805
H 3.053173 2.008180 -0.055654
C 0.227815 1.827542 -0.013735
O 0.217425 3.010151 0.005563
F 0.466973 -1.985822 0.041896
