31

Ir 0.036860 0.064237 -0.029037
C -1.969561 -0.011155 -0.010697
C -4.154197 0.326989 0.539185
C -4.116821 -0.630763 -0.438971
H -4.998051 0.773778 1.073152
H -4.921957 -1.191652 -0.922720
C -2.301710 -1.791443 -1.740611
H -1.352302 -1.417824 -2.167224
H -2.097799 -2.763546 -1.249885
H -3.057231 -1.910595 -2.540223
C -2.430239 1.691422 1.765450
H -1.390162 1.469924 2.070642
H -2.465656 2.710235 1.328141
H -3.097653 1.644928 2.646915
N -2.838365 0.690538 0.791047
N -2.782116 -0.819353 -0.766630
N 2.185257 -0.022607 0.010846
C 5.011453 -0.128931 0.082140
C 4.344038 0.893213 -0.608394
C 2.946997 0.912602 -0.620076
C 2.838827 -1.015053 0.675465
C 4.233755 -1.096560 0.732514
H 6.110727 -0.169952 0.110641
H 4.894596 1.682036 -1.141169
H 2.401751 1.704458 -1.151616
H 2.199286 -1.769935 1.155406
H 4.694974 -1.926087 1.287783
C -0.022809 1.872038 -0.505585
O -0.118776 3.005009 -0.793830
C -0.038327 -1.915074 0.505238
N -0.115769 -3.057980 0.797978
