28

Ir -0.159660 0.075102 0.016215
N 1.969191 0.031375 0.010342
C 2.663045 -0.909191 0.700648
C 4.065875 -0.918288 0.686827
N 4.797724 -0.020878 0.010641
C 4.099517 0.903573 -0.670199
C 2.700495 0.943155 -0.680994
H 2.065986 -1.661896 1.236170
H 4.608335 -1.692525 1.256760
H 4.670503 1.655804 -1.241518
H 2.142990 1.705707 -1.243145
P -2.436872 -0.028688 -0.004213
C -3.194994 -0.962811 1.396178
C -3.145550 -0.825766 -1.506225
C -3.340450 1.576495 0.070899
H -2.793578 -1.993890 1.416209
H -4.299694 -0.994851 1.303814
H -2.912007 -0.466714 2.344605
H -2.675355 -1.820865 -1.624358
H -2.871993 -0.215477 -2.388641
H -4.248761 -0.914726 -1.435813
H -3.069970 2.109159 1.002922
H -4.436463 1.413400 0.040959
H -3.035865 2.206761 -0.786673
C -0.200932 1.908136 0.225241
O -0.246414 3.076177 0.346636
S -0.024753 -2.304990 -0.345077
H -1.180339 -2.777297 0.200385
