26

Ir 0.334009 -0.058417 -0.000137
N 2.467154 0.001857 -0.000005
C 4.639908 -0.593490 0.000106
C 3.345700 -1.070258 -0.000522
N 4.525918 0.784210 0.000911
C 3.209130 1.113978 0.000876
H 5.296750 1.452749 0.001545
H 5.605877 -1.106730 -0.000006
H 2.990696 -2.105111 -0.001280
H 2.795962 2.130269 0.001339
P -1.887888 0.019094 -0.000088
C -5.024588 0.104488 0.000468
C -4.384993 -1.148400 0.000313
C -2.995450 -1.321538 0.000046
C -2.917385 1.418032 0.000111
C -4.313194 1.319082 0.000348
H -6.124595 0.136114 0.000703
H -5.014858 -2.054184 0.000399
H -2.567846 -2.336376 -0.000117
H -2.414645 2.396888 0.000036
H -4.891462 2.258779 0.000432
C 0.309489 -1.941386 0.000013
O 0.275473 -3.111930 0.000018
C 0.340093 1.983380 -0.000514
C 0.359575 3.223864 -0.000683
H 0.358784 4.305801 -0.001019
