40

Ir 0.064505 0.123942 0.035903
P -2.251669 -0.051186 -0.032277
C -3.091342 -0.734055 1.485372
C -2.822553 -1.171386 -1.396667
C -2.417476 -0.682432 -2.789278
C -3.204541 1.519495 -0.334304
C -3.283316 2.467834 0.864846
C -2.775467 -2.192498 1.822194
H -2.775965 -0.067661 2.315304
H -4.185060 -0.580027 1.345669
H -2.334107 -2.143752 -1.176579
H -3.922803 -1.305746 -1.303668
H -2.696723 2.017176 -1.185986
H -4.221747 1.231050 -0.679104
H -1.318969 -0.537289 -2.842002
H -2.705989 -1.422109 -3.563683
H -2.899175 0.281379 -3.053346
H -3.881876 2.041258 1.694454
H -2.275798 2.703523 1.260031
H -3.760264 3.425385 0.571655
H -3.164206 -2.885787 1.049487
H -1.683469 -2.363908 1.891016
H -3.243861 -2.473259 2.787790
As 2.506528 0.035510 0.039114
C 3.257492 -0.862165 -1.530786
C 3.275909 -1.015059 1.501893
C 3.529504 1.707167 0.114814
H 2.760884 -1.849063 -1.596300
H 4.354810 -0.980244 -1.437298
H 3.011591 -0.272512 -2.434134
H 2.762512 -1.995392 1.486217
H 3.059786 -0.508862 2.461750
H 4.368709 -1.140747 1.372982
H 3.190370 2.368134 -0.705460
H 4.615756 1.512624 0.023603
H 3.319255 2.208932 1.078785
C 0.051898 1.947790 -0.007421
N 0.083039 3.163947 -0.191280
H 0.080592 3.882939 0.536764
Cl 0.231561 -2.302905 -0.030239
