34

Ir -0.027376 0.125664 0.037768
C 1.965103 0.092946 0.057255
C 4.155760 0.262074 -0.554742
C 4.115800 -0.320298 0.684819
H 5.002319 0.519634 -1.198203
H 4.921275 -0.676910 1.333870
C 2.278744 -1.016139 2.268440
H 1.349024 -0.492415 2.562267
H 2.025317 -2.080176 2.089578
H 3.042116 -0.925279 3.064595
C 2.425823 1.097133 -2.183028
H 1.318539 1.061663 -2.209855
H 2.769851 2.149396 -2.258628
H 2.834703 0.515181 -3.032901
N 2.839218 0.507535 -0.921462
N 2.779164 -0.405383 1.045605
N -2.168031 0.031208 0.017309
C -4.985150 -0.102832 0.016447
C -4.304918 0.762687 0.886505
C -2.907563 0.802264 0.856232
C -2.828041 -0.807630 -0.822841
C -4.224040 -0.898520 -0.851600
H -6.084507 -0.155709 0.016147
H -4.846483 1.408658 1.592864
H -2.337563 1.471850 1.516389
H -2.189371 -1.435626 -1.461612
H -4.700578 -1.596812 -1.555025
C -0.055272 1.951925 0.250902
N -0.084862 3.148265 0.475638
C -0.070512 4.433537 -0.138739
H 0.761593 5.050495 0.263432
H -1.011530 4.982845 0.079655
H 0.043926 4.374522 -1.244635
Br 0.064471 -2.410334 -0.274389
