32

Ir -0.592831 -0.217435 -0.000057
As 1.652890 -0.987978 -0.000032
C 1.945616 -2.921172 0.000202
C 2.723333 -0.369726 1.517239
C 2.723935 -0.370043 -1.516996
H 1.468910 -3.356394 0.898810
H 3.029538 -3.146531 -0.000442
H 1.467703 -3.356856 -0.897537
H 2.227083 -0.673861 2.457639
H 2.781056 0.735390 1.472953
H 3.742055 -0.801486 1.465235
H 2.228844 -0.675427 -2.457604
H 3.742944 -0.800962 -1.463626
H 2.780777 0.735153 -1.473590
N -2.589979 0.788373 0.000023
C -3.714588 -0.176701 -0.000213
C -2.677699 1.637917 1.214313
C -2.677538 1.638257 -1.214092
H -2.602999 0.998413 2.113253
H -3.645809 2.190160 1.230087
H -1.838028 2.355895 1.218477
H -2.602227 0.999017 -2.113166
H -1.838082 2.356488 -1.217689
H -3.645836 2.190142 -1.230019
H -3.654647 -0.818712 0.897453
H -3.654554 -0.818353 -0.898127
H -4.688892 0.363976 -0.000123
C -1.233883 -1.928990 -0.000045
O -1.600024 -3.047607 0.000013
N 0.237206 1.657218 0.000181
C 1.091586 2.506632 0.000123
S 2.249366 3.627149 -0.000078
