37

Ir -0.216539 0.093657 -0.057413
P -2.537183 -0.095623 0.058088
C -3.172427 -0.409484 1.761560
C -3.244398 -1.507915 -0.896080
C -3.560847 1.334871 -0.505866
H -2.651001 -1.307176 2.147940
H -4.270527 -0.566982 1.770357
H -2.911371 0.450820 2.407937
H -2.722381 -2.425582 -0.560519
H -3.031859 -1.359491 -1.972702
H -4.338228 -1.606502 -0.739940
H -3.266493 2.236565 0.065696
H -4.644753 1.142893 -0.371414
H -3.350215 1.528212 -1.575922
C 1.828740 0.026636 -0.033340
C 4.006929 -0.751796 -0.415120
C 4.060821 0.421837 0.577349
H 4.229482 -1.728956 0.075083
H 4.522058 1.335187 0.131661
C 2.217750 1.638960 1.820119
H 2.539859 2.663686 1.525385
H 1.111211 1.607742 1.869347
H 2.639810 1.410128 2.822028
C 2.114227 -1.676485 -1.817427
H 2.165699 -2.714471 -1.419841
H 1.051506 -1.437116 -2.018132
H 2.701611 -1.616523 -2.758427
N 2.610676 -0.718424 -0.855801
N 2.641918 0.653010 0.854410
H 4.619918 0.183388 1.506087
H 4.705668 -0.636009 -1.269717
C -0.265281 1.858632 -0.713647
N -0.311499 3.042340 -1.021460
H -0.332424 3.470723 -1.948813
C -0.192683 -1.825220 0.681351
C -0.198736 -2.985522 1.125274
H -0.188549 -3.993325 1.518314
