32

Ir -0.172047 0.341716 -0.066784
P -2.505319 0.127904 -0.009993
C -3.172020 -0.509275 1.585951
C -3.182419 -1.057415 -1.248418
C -3.501139 1.653983 -0.301731
H -2.655345 -1.464494 1.804558
H -4.268890 -0.665790 1.535867
H -2.932360 0.211728 2.391410
H -2.667502 -2.026399 -1.095904
H -2.945529 -0.690067 -2.265830
H -4.279183 -1.180728 -1.139047
H -3.238608 2.411147 0.462655
H -4.588986 1.444260 -0.257259
H -3.244625 2.070786 -1.295208
C 1.883311 0.264773 -0.069239
C 4.019311 -0.255054 -0.646465
C 4.061416 0.357548 0.579299
H 4.820665 -0.659604 -1.272205
H 4.906605 0.598369 1.231107
C 2.335043 1.307237 2.151086
H 2.779116 2.319424 2.235804
H 1.229970 1.381257 2.126830
H 2.640948 0.694138 3.021850
C 2.176129 -0.927237 -2.235055
H 1.935676 -1.990730 -2.036236
H 1.238907 -0.414194 -2.523749
H 2.926914 -0.843574 -3.043646
N 2.686205 -0.293765 -1.027218
N 2.750088 0.667683 0.912470
C -0.243117 2.125226 -0.426978
O -0.305349 3.277624 -0.658095
Br -0.077164 -2.172096 0.432817
