39
01/09/2019 21:43, XYZ structure generated by mol3D Class, molSimplify
Ir 	0.000000	0.000000	0.000000
C 	-2.140000	-0.000425	-0.000889
C 	-4.311928	0.541424	-0.416395
C 	-4.307038	-0.528799	0.437241
H 	-5.140042	1.106994	-0.853265
H 	-5.132080	-1.084270	0.892476
C 	-2.537286	-1.924645	1.556248
H 	-2.046090	-2.723263	0.967204
H 	-1.814026	-1.507545	2.288283
H 	-3.419852	-2.339592	2.076250
C 	-2.553924	1.934513	-1.540930
H 	-2.090844	2.746392	-0.945595
H 	-1.807238	1.564608	-2.269267
H 	-3.431743	2.331937	-2.082205
N 	-2.982599	0.845808	-0.679151
N 	-2.979606	-0.846992	0.676673
C 	2.140000	-0.000425	-0.000889
C 	4.353016	0.544889	-0.541906
C 	4.352804	-0.600621	0.475619
H 	4.642779	0.199870	-1.562508
H 	4.702435	-0.271794	1.482816
C 	2.496801	-2.104145	1.309772
H 	2.318767	-1.829293	2.373009
H 	1.571984	-2.516748	0.859069
H 	3.284548	-2.882225	1.270119
C 	2.529331	2.097997	-1.318368
H 	2.332317	1.826987	-2.380456
H 	1.606834	2.531610	-0.889544
H 	3.325960	2.867982	-1.292525
N 	2.946940	0.963146	-0.527940
N 	2.934012	-0.964314	0.525496
H 	4.975611	-1.463238	0.163759
H 	5.023164	1.382693	-0.261251
C 	0.000000	1.645321	-1.368400
O 	0.000001	2.550873	-2.121539
C 	0.000000	0.355356	2.110290
C 	0.000001	0.561186	3.332611
H 	-0.001856	0.727001	4.401027
H 	0.000000	-1.628954	-0.611644
