43
04/12/2019 10:12, XYZ structure generated by mol3D Class, molSimplify
Ir 	0.000000	0.000000	0.000000
P 	-2.430000	-0.000482	-0.001010
C 	-3.231546	1.616199	0.424655
C 	-3.232589	-1.171512	1.198875
C 	-2.740560	-2.618097	1.144911
C 	-3.199747	-0.446605	-1.627546
C 	-2.607791	0.292410	-2.829731
C 	-2.741047	2.280567	1.711106
H 	-3.021842	2.278950	-0.439051
H 	-4.324469	1.411017	0.452084
H 	-3.047597	-0.736276	2.204210
H 	-4.328675	-1.105811	1.021039
H 	-3.062676	-1.543383	-1.739135
H 	-4.292434	-0.265890	-1.525247
H 	-1.658483	-2.676994	1.374710
H 	-3.286024	-3.241471	1.882001
H 	-2.889464	-3.076269	0.146298
H 	-2.663391	1.392797	-2.714975
H 	-1.536137	0.040424	-2.951611
H 	-3.144695	0.010621	-3.758071
H 	-2.810885	1.613627	2.595194
H 	-1.689079	2.604308	1.585444
H 	-3.348647	3.182244	1.928813
N 	2.120000	-0.000421	-0.000881
C 	4.933641	0.009504	-0.006571
C 	4.212532	1.062734	0.574506
C 	2.816050	1.025092	0.558388
C 	2.814864	-1.026210	-0.560728
C 	4.213430	-1.046937	-0.580020
H 	6.034178	0.013103	-0.009922
H 	4.719317	1.918173	1.043564
H 	2.209108	1.827672	0.999700
H 	2.186999	-1.825571	-0.994291
H 	4.722900	-1.901976	-1.047434
C 	0.000000	1.645321	-1.368400
N 	0.000001	2.587135	-2.151698
C 	0.996098	3.381696	-2.813220
H 	0.873987	4.453007	-2.545916
H 	0.873326	3.313915	-3.915145
H 	2.034749	3.073530	-2.557334
O 	0.000000	0.348714	2.070845
H 	0.000001	0.510783	3.033296
H 	0.000000	-1.628954	-0.611644
