37
01/09/2019 15:26, XYZ structure generated by mol3D Class, molSimplify
Ir 	0.000000	0.000000	0.000000
P 	-2.430000	-0.000482	-0.001010
C 	-3.179247	0.947862	1.384613
C 	-3.179030	-1.670507	0.124111
C 	-3.182168	0.720751	-1.512689
H 	-2.839483	0.511141	2.343972
H 	-4.286765	0.925890	1.335655
H 	-2.823195	1.995239	1.336553
H 	-2.832719	-2.144525	1.062545
H 	-2.803768	-2.267045	-0.730045
H 	-4.286460	-1.621581	0.108252
H 	-2.838943	1.767435	-1.626554
H 	-4.289065	0.692713	-1.459167
H 	-2.823279	0.133835	-2.380457
P 	2.430000	-0.000482	-0.001010
C 	3.178973	-0.712322	1.519846
C 	3.179580	1.667531	-0.147794
C 	3.181892	-0.957103	-1.376017
H 	2.839378	-0.125985	2.395870
H 	4.286498	-0.698925	1.468007
H 	2.822578	-1.753552	1.641916
H 	2.833448	2.287289	0.701545
H 	2.804490	2.118092	-1.087243
H 	4.286993	1.616321	-0.155496
H 	2.838322	-2.008304	-1.318996
H 	4.288799	-0.921135	-1.327708
H 	2.823171	-0.518245	-2.327340
C 	0.000000	1.645321	-1.368400
N 	0.000001	2.587135	-2.151698
C 	0.000533	4.018980	-2.046970
H 	-0.890019	4.442754	-2.558244
H 	0.891081	4.442145	-2.558596
H 	0.000851	4.375172	-0.992281
C 	0.000000	0.355356	2.110290
C 	0.000001	0.561186	3.332611
H 	0.000097	0.726880	4.401047
H 	0.000000	-1.628954	-0.611644
