32
01/09/2019 22:56, XYZ structure generated by mol3D Class, molSimplify
Ir 	0.000000	0.000000	0.000000
N 	-2.120000	-0.000421	-0.000881
C 	-2.632543	1.141795	-0.800266
C 	-2.607855	-1.267467	-0.595130
C 	-2.624172	0.124111	1.392128
H 	-2.214535	-1.371150	-1.622930
H 	-3.721744	-1.280122	-0.623285
H 	-2.248278	-2.124464	0.002489
H 	-2.245487	1.064739	1.831721
H 	-2.252732	-0.722838	1.996636
H 	-3.738439	0.124248	1.397768
H 	-2.276597	1.052380	-1.843204
H 	-2.251188	2.087395	-0.373866
H 	-3.746189	1.144379	-0.793434
N 	2.120000	-0.000421	-0.000881
C 	2.632451	1.011040	-0.960420
C 	2.608984	0.328032	1.359102
C 	2.623136	-1.340633	-0.401950
H 	2.216436	1.314529	1.666598
H 	3.722900	0.352456	1.376362
H 	2.249478	-0.428764	2.079452
H 	2.243614	-1.582927	-1.411248
H 	2.251757	-2.102162	0.307185
H 	3.737398	-1.346763	-0.403986
H 	2.277278	2.015202	-0.663901
H 	2.250265	0.782668	-1.971948
H 	3.746090	1.004232	-0.965091
C 	0.000000	1.645321	-1.368400
O 	0.000001	2.550873	-2.121539
O 	0.000000	0.348714	2.070845
H 	0.000001	0.510783	3.033296
H 	0.000000	-1.628954	-0.611644
