31
01/09/2019 22:05, XYZ structure generated by mol3D Class, molSimplify
Ir 	0.000000	0.000000	0.000000
N 	-2.120000	-0.000421	-0.000881
C 	-4.270960	-0.634532	-0.156742
C 	-2.963945	-1.066691	-0.259687
N 	-4.193058	0.707370	0.166247
C 	-2.885792	1.065530	0.257256
H 	-4.980181	1.337817	0.319129
H 	-5.222996	-1.158245	-0.282395
H 	-2.568128	-2.058978	-0.494516
H 	-2.469485	2.054530	0.506626
P 	2.430000	-0.000482	-0.001010
C 	5.552914	-0.004401	-0.001694
C 	4.883005	-0.612326	-1.077864
C 	3.486746	-0.678894	-1.194364
C 	3.487189	0.677509	1.191466
C 	4.880207	0.606522	1.073712
H 	6.653622	-0.004698	-0.001072
H 	5.489552	-1.064965	-1.880318
H 	3.025588	-1.170844	-2.065126
H 	2.991058	1.173992	2.041242
H 	5.486411	1.061868	1.875170
C 	0.000000	1.645321	-1.368400
N 	0.000001	2.587135	-2.151698
C 	-0.996096	3.382377	-2.812401
H 	-0.873985	3.314780	-3.914485
H 	-0.873324	4.453498	-2.544946
H 	-2.034748	3.074618	-2.556028
N 	0.000000	0.352035	2.090567
O 	1.076300	0.456488	2.710287
O 	-1.076300	0.456310	2.710379
H 	0.000000	-1.628954	-0.611644
