35
01/09/2019 23:07, XYZ structure generated by mol3D Class, molSimplify
Ir 	0.000000	0.000000	0.000000
N 	-2.120000	-0.000421	-0.000881
C 	-2.632543	1.141795	-0.800266
C 	-2.607855	-1.267467	-0.595130
C 	-2.624172	0.124111	1.392128
H 	-2.214535	-1.371150	-1.622930
H 	-3.721744	-1.280122	-0.623285
H 	-2.248278	-2.124464	0.002489
H 	-2.245487	1.064739	1.831721
H 	-2.252732	-0.722838	1.996636
H 	-3.738439	0.124248	1.397768
H 	-2.276597	1.052380	-1.843204
H 	-2.251188	2.087395	-0.373866
H 	-3.746189	1.144379	-0.793434
P 	2.430000	-0.000482	-0.001010
C 	5.552916	0.001412	-0.000087
C 	4.883955	-0.472350	1.142076
C 	3.487801	-0.523180	1.267412
C 	3.486135	0.521795	-1.270311
C 	4.879259	0.472718	-1.143029
H 	6.653623	0.002093	-0.001147
H 	5.491209	-0.826016	1.992298
H 	3.027409	-0.906477	2.191550
H 	2.989244	0.885759	-2.184307
H 	5.484755	0.823940	-1.995775
C 	0.000000	1.645321	-1.368400
N 	0.000001	2.587135	-2.151698
C 	-0.996096	3.382377	-2.812401
H 	-0.873985	3.314780	-3.914485
H 	-0.873324	4.453498	-2.544946
H 	-2.034748	3.074618	-2.556028
N 	0.000000	0.352035	2.090567
C 	0.000001	0.551886	3.277385
S 	-0.007446	0.816136	4.874314
H 	0.000000	-1.628954	-0.611644
