29
04/12/2019 09:22, XYZ structure generated by mol3D Class, molSimplify
Ir 	0.000000	0.000000	0.000000
N 	-2.120000	-0.000421	-0.000881
C 	-2.822542	-1.151782	0.109377
C 	-4.225382	-1.127133	0.111309
N 	-4.939298	0.004181	0.004086
C 	-4.226632	1.135536	-0.108184
C 	-2.825329	1.150660	-0.111724
H 	-2.216731	-2.073136	0.202121
H 	-4.784083	-2.074509	0.203023
H 	-4.783641	2.084116	-0.200108
H 	-2.246671	2.081096	-0.204006
N 	2.120000	-0.000421	-0.000881
C 	4.271115	0.550975	-0.349715
C 	2.964206	0.928509	-0.584458
N 	4.192884	-0.619196	0.382180
C 	2.885531	-0.929670	0.582027
H 	4.979853	-1.168811	0.727149
H 	5.223280	1.007559	-0.634936
H 	2.568632	1.795194	-1.121883
H 	2.468983	-1.788420	1.132166
C 	0.000000	1.645321	-1.368400
N 	0.000001	2.587135	-2.151698
C 	0.957364	3.206144	-3.024298
H 	1.085453	4.276917	-2.757640
H 	0.593880	3.182062	-4.073681
H 	1.955692	2.714920	-2.988516
S 	0.000000	0.396870	2.356819
H 	0.000001	0.623377	3.701934
H 	0.000000	-1.628954	-0.611644
