42
04/12/2019 10:02, XYZ structure generated by mol3D Class, molSimplify
Ir 	0.000000	0.000000	0.000000
P 	-2.430000	-0.000482	-0.001010
C 	-3.231546	1.616199	0.424655
C 	-3.232589	-1.171512	1.198875
C 	-2.740560	-2.618097	1.144911
C 	-3.199747	-0.446605	-1.627546
C 	-2.607791	0.292410	-2.829731
C 	-2.741047	2.280567	1.711106
H 	-3.021842	2.278950	-0.439051
H 	-4.324469	1.411017	0.452084
H 	-3.047597	-0.736276	2.204210
H 	-4.328675	-1.105811	1.021039
H 	-3.062676	-1.543383	-1.739135
H 	-4.292434	-0.265890	-1.525247
H 	-1.658483	-2.676994	1.374710
H 	-3.286024	-3.241471	1.882001
H 	-2.889464	-3.076269	0.146298
H 	-2.663391	1.392797	-2.714975
H 	-1.536137	0.040424	-2.951611
H 	-3.144695	0.010621	-3.758071
H 	-2.810885	1.613627	2.595194
H 	-1.689079	2.604308	1.585444
H 	-3.348647	3.182244	1.928813
N 	2.120000	-0.000421	-0.000881
C 	2.632007	-0.600306	-1.259595
C 	2.608675	1.394624	0.106767
C 	2.623889	-0.795879	1.149559
H 	2.215572	1.991813	-0.736239
H 	3.722576	1.418874	0.088342
H 	2.249501	1.845761	1.049294
H 	2.244595	-1.830749	1.068285
H 	2.252845	-0.356873	2.093128
H 	3.738154	-0.799421	1.154230
H 	2.276270	-0.008088	-2.122811
H 	2.250042	-1.632996	-1.354798
H 	3.745650	-0.606564	-1.255094
C 	0.000000	1.645321	-1.368400
N 	0.000001	2.586689	-2.151327
H 	0.810102	3.059293	-2.558142
O 	0.000000	0.348714	2.070845
H 	0.000001	0.510783	3.033296
H 	0.000000	-1.628954	-0.611644
