27
01/10/2019 10:01, XYZ structure generated by mol3D Class, molSimplify
Ir 	0.000000	0.000000	0.000000
P 	-2.430000	-0.000482	-0.001010
C 	-5.552916	-0.000628	0.001014
C 	-4.883912	1.213954	0.232785
C 	-3.487753	1.346549	0.259215
C 	-3.486183	-1.347933	-0.262114
C 	-4.879302	-1.214565	-0.233210
H 	-6.653623	-0.001844	0.000976
H 	-5.491134	2.118678	0.404456
H 	-3.027327	2.329269	0.446767
H 	-2.989326	-2.311595	-0.460226
H 	-5.484830	-2.120007	-0.408336
P 	2.430000	-0.000482	-0.001010
C 	5.552916	0.001251	0.000083
C 	4.883925	-0.551010	1.106407
C 	3.487767	-0.610418	1.227875
C 	3.486169	0.609034	-1.230773
C 	4.879290	0.551156	-1.107206
H 	6.653623	0.001972	-0.000912
H 	5.491156	-0.963141	1.929895
H 	3.027351	-1.057233	2.123018
H 	2.989302	1.035883	-2.117161
H 	5.484808	0.960990	-1.933367
C 	0.000000	1.645321	-1.368400
O 	0.000001	2.550873	-2.121539
Br 	0.000000	0.416796	2.475153
H 	0.000000	-1.628954	-0.611644
