26
01/10/2019 17:16, XYZ structure generated by mol3D Class, molSimplify
Ir 	0.000000	0.000000	0.000000
N 	-2.120000	-0.000421	-0.000881
C 	-4.454548	-0.130805	0.364616
O 	-4.112741	0.377547	-0.962866
C 	-2.780129	0.408587	-1.034437
C 	-3.085999	-0.409751	1.031999
H 	-2.925075	-1.477120	1.286636
H 	-2.912846	0.181005	1.954748
H 	-5.081361	-1.034010	0.227838
H 	-5.053314	0.647607	0.878078
H 	-2.284887	0.782436	-1.949246
N 	2.120000	-0.000421	-0.000881
C 	4.454308	0.163602	-0.354161
O 	4.113380	-0.405420	0.948700
C 	2.780817	-0.433818	1.022243
C 	3.085311	0.432654	-1.024681
H 	2.923991	-0.149437	-1.954821
H 	2.911769	1.500936	-1.267781
H 	5.080987	-0.575887	-0.890641
H 	5.052962	1.078687	-0.174376
H 	2.286186	-0.809243	1.936738
C 	0.000000	1.645321	-1.368400
N 	0.000001	2.586689	-2.151327
H 	-0.074161	3.581935	-1.929734
Br 	0.000000	0.416796	2.475153
H 	0.000000	-1.628954	-0.611644
