33
01/09/2019 15:40, XYZ structure generated by mol3D Class, molSimplify
Ir 	0.000000	0.000000	0.000000
P 	-2.430000	-0.000482	-0.001010
C 	-3.179247	0.947862	1.384613
C 	-3.179030	-1.670507	0.124111
C 	-3.182168	0.720751	-1.512689
H 	-2.839483	0.511141	2.343972
H 	-4.286765	0.925890	1.335655
H 	-2.823195	1.995239	1.336553
H 	-2.832719	-2.144525	1.062545
H 	-2.803768	-2.267045	-0.730045
H 	-4.286460	-1.621581	0.108252
H 	-2.838943	1.767435	-1.626554
H 	-4.289065	0.692713	-1.459167
H 	-2.823279	0.133835	-2.380457
N 	2.120000	-0.000421	-0.000881
C 	4.933646	0.005943	0.007027
C 	4.212508	-0.302674	1.169636
C 	2.816025	-0.295368	1.129384
C 	2.814889	0.294250	-1.131724
C 	4.213459	0.307181	-1.156674
H 	6.034185	0.009456	0.009575
H 	4.719272	-0.551130	2.113079
H 	2.209062	-0.529074	2.014961
H 	2.187042	0.521899	-2.012153
H 	4.722950	0.553575	-2.099455
C 	0.000000	1.645321	-1.368400
N 	0.000001	2.587135	-2.151698
C 	-0.895052	3.661560	-2.476720
H 	-1.175692	3.617366	-3.550665
H 	-0.394315	4.640635	-2.319938
H 	-1.828447	3.644927	-1.870306
Br 	0.000000	0.416796	2.475153
H 	0.000000	-1.628954	-0.611644
