32
01/09/2019 21:18, XYZ structure generated by mol3D Class, molSimplify
Ir 	0.000000	0.000000	0.000000
C 	-2.140000	-0.000425	-0.000889
C 	-4.311928	0.541424	-0.416395
C 	-4.307038	-0.528799	0.437241
H 	-5.140042	1.106994	-0.853265
H 	-5.132080	-1.084270	0.892476
C 	-2.537286	-1.924645	1.556248
H 	-2.046090	-2.723263	0.967204
H 	-1.814026	-1.507545	2.288283
H 	-3.419852	-2.339592	2.076250
C 	-2.553924	1.934513	-1.540930
H 	-2.090844	2.746392	-0.945595
H 	-1.807238	1.564608	-2.269267
H 	-3.431743	2.331937	-2.082205
N 	-2.982599	0.845808	-0.679151
N 	-2.979606	-0.846992	0.676673
N 	2.120000	-0.000421	-0.000881
C 	4.271438	0.437629	0.481245
C 	2.964748	0.735113	0.812474
N 	4.192525	-0.486300	-0.544045
C 	2.884989	-0.736274	-0.814905
H 	4.979173	-0.921918	-1.025523
H 	5.223868	0.797256	0.881223
H 	2.569676	1.415099	1.572728
H 	2.467933	-1.426937	-1.565016
C 	0.000000	1.645321	-1.368400
N 	0.000001	2.586689	-2.151327
H 	0.809978	3.077376	-2.536400
N 	0.000000	0.352035	2.090567
O 	1.075648	0.419447	2.716525
O 	-1.075647	0.493351	2.704141
H 	0.000000	-1.628954	-0.611644
