29
04/12/2019 09:30, XYZ structure generated by mol3D Class, molSimplify
Ir 	0.000000	0.000000	0.000000
N 	-2.120000	-0.000421	-0.000881
C 	-2.822542	-1.151782	0.109377
C 	-4.225382	-1.127133	0.111309
N 	-4.939298	0.004181	0.004086
C 	-4.226632	1.135536	-0.108184
C 	-2.825329	1.150660	-0.111724
H 	-2.216731	-2.073136	0.202121
H 	-4.784083	-2.074509	0.203023
H 	-4.783641	2.084116	-0.200108
H 	-2.246671	2.081096	-0.204006
P 	2.430000	-0.000482	-0.001010
C 	5.552915	-0.003234	0.000283
C 	4.883164	-1.160829	-0.433194
C 	3.486923	-1.287016	-0.479336
C 	3.487013	1.285631	0.476437
C 	4.880049	1.155868	0.431550
H 	6.653623	-0.002819	0.000703
H 	5.489829	-2.023244	-0.757096
H 	3.025892	-2.223688	-0.830054
H 	2.990752	2.212075	0.808382
H 	5.486134	2.019985	0.752674
C 	0.000000	1.645321	-1.368400
N 	0.000001	2.586689	-2.151327
H 	-0.810101	3.072817	-2.541882
N 	0.000000	0.352035	2.090567
C 	0.000001	0.553769	3.288568
O 	-0.033779	0.726404	4.477466
H 	0.000000	-1.628954	-0.611644
