28
04/12/2019 09:14, XYZ structure generated by mol3D Class, molSimplify
Ir 	0.000000	0.000000	0.000000
N 	-2.120000	-0.000421	-0.000881
C 	-2.822542	-1.151782	0.109377
C 	-4.225382	-1.127133	0.111309
N 	-4.939298	0.004181	0.004086
C 	-4.226632	1.135536	-0.108184
C 	-2.825329	1.150660	-0.111724
H 	-2.216731	-2.073136	0.202121
H 	-4.784083	-2.074509	0.203023
H 	-4.783641	2.084116	-0.200108
H 	-2.246671	2.081096	-0.204006
As 	2.580000	-0.000512	-0.001072
C 	3.391099	0.734237	-1.625112
C 	3.416500	-1.754552	0.175505
C 	3.407047	1.018288	1.445362
H 	3.025018	0.153115	-2.493266
H 	4.496126	0.681720	-1.573559
H 	3.068678	1.786319	-1.741893
H 	3.124207	-2.374320	-0.693089
H 	2.996542	-2.197181	1.099327
H 	4.518905	-1.669759	0.237725
H 	3.107446	2.080156	1.361067
H 	4.510105	0.927860	1.414044
H 	3.001810	0.593362	2.384114
C 	0.000000	1.645321	-1.368400
O 	0.000001	2.550873	-2.121539
Br 	0.000000	0.416796	2.475153
H 	0.000000	-1.628954	-0.611644
