32
01/10/2019 17:26, XYZ structure generated by mol3D Class, molSimplify
Ir 	0.000000	0.000000	0.000000
N 	-2.120000	-0.000421	-0.000881
C 	-4.454548	-0.130805	0.364616
O 	-4.112741	0.377547	-0.962866
C 	-2.780129	0.408587	-1.034437
C 	-3.085999	-0.409751	1.031999
H 	-2.925075	-1.477120	1.286636
H 	-2.912846	0.181005	1.954748
H 	-5.081361	-1.034010	0.227838
H 	-5.053314	0.647607	0.878078
H 	-2.284887	0.782436	-1.949246
N 	2.120000	-0.000421	-0.000881
C 	4.933645	-0.003094	0.009168
C 	4.212101	-1.073315	0.557751
C 	2.815631	-1.037990	0.536233
C 	2.815282	1.036873	-0.538573
C 	4.213863	1.063542	-0.545644
H 	6.034184	-0.003048	0.013495
H 	4.718535	-1.940869	1.004403
H 	2.208359	-1.852254	0.955116
H 	2.187742	1.843720	-0.958525
H 	4.723683	1.928844	-0.993376
C 	0.000000	1.645321	-1.368400
N 	0.000001	2.587135	-2.151698
C 	-0.990584	3.448954	-2.732351
H 	-0.962230	3.376314	-3.840498
H 	-0.775397	4.508749	-2.478513
H 	-2.023512	3.210617	-2.392507
N 	0.000000	0.352035	2.090567
O 	1.011424	0.093477	2.771416
O 	-1.011423	0.819321	2.649250
H 	0.000000	-1.628954	-0.611644
