31
04/12/2019 09:04, XYZ structure generated by mol3D Class, molSimplify
Ir 	0.000000	0.000000	0.000000
N 	-2.120000	-0.000421	-0.000881
C 	-2.822542	-1.151782	0.109377
C 	-4.225382	-1.127133	0.111309
N 	-4.939298	0.004181	0.004086
C 	-4.226632	1.135536	-0.108184
C 	-2.825329	1.150660	-0.111724
H 	-2.216731	-2.073136	0.202121
H 	-4.784083	-2.074509	0.203023
H 	-4.783641	2.084116	-0.200108
H 	-2.246671	2.081096	-0.204006
N 	2.120000	-0.000421	-0.000881
C 	2.823053	1.128592	0.248919
C 	4.225881	1.103266	0.247793
N 	4.939296	-0.006852	0.003411
C 	4.226128	-1.115759	-0.245947
C 	2.824819	-1.129713	-0.251266
H 	2.217650	2.032034	0.453327
H 	4.785003	2.032142	0.454319
H 	4.782716	-2.046301	-0.452859
H 	2.245748	-2.041696	-0.456290
C 	0.000000	1.645321	-1.368400
N 	0.000001	2.587135	-2.151698
C 	0.000533	4.018980	-2.046970
H 	-0.890019	4.442754	-2.558244
H 	0.891081	4.442145	-2.558596
H 	0.000851	4.375172	-0.992281
N 	0.000000	0.352035	2.090567
O 	1.076300	0.456488	2.710287
O 	-1.076300	0.456310	2.710379
H 	0.000000	-1.628954	-0.611644
