31
01/09/2019 21:27, XYZ structure generated by mol3D Class, molSimplify
Ir 	0.000000	0.000000	0.000000
C 	-2.140000	-0.000425	-0.000889
C 	-4.311928	0.541424	-0.416395
C 	-4.307038	-0.528799	0.437241
H 	-5.140042	1.106994	-0.853265
H 	-5.132080	-1.084270	0.892476
C 	-2.537286	-1.924645	1.556248
H 	-2.046090	-2.723263	0.967204
H 	-1.814026	-1.507545	2.288283
H 	-3.419852	-2.339592	2.076250
C 	-2.553924	1.934513	-1.540930
H 	-2.090844	2.746392	-0.945595
H 	-1.807238	1.564608	-2.269267
H 	-3.431743	2.331937	-2.082205
N 	-2.982599	0.845808	-0.679151
N 	-2.979606	-0.846992	0.676673
N 	2.120000	-0.000421	-0.000881
C 	4.454597	0.232965	0.308781
O 	4.112602	-0.650028	-0.805143
C 	2.779980	-0.700753	-0.864164
C 	3.086148	0.699589	0.861726
H 	2.925516	1.794234	0.784514
H 	2.912878	0.412820	1.919166
H 	5.081642	1.053405	-0.092560
H 	5.053179	-0.355776	1.032088
H 	2.284602	-1.331627	-1.624757
C 	0.000000	1.645321	-1.368400
O 	0.000001	2.550873	-2.121539
O 	0.000000	0.348714	2.070845
H 	0.000001	0.510783	3.033296
H 	0.000000	-1.628954	-0.611644
