31
04/12/2019 09:18, XYZ structure generated by mol3D Class, molSimplify
Ir 	0.000000	0.000000	0.000000
N 	-2.120000	-0.000421	-0.000881
C 	-2.822542	-1.151782	0.109377
C 	-4.225382	-1.127133	0.111309
N 	-4.939298	0.004181	0.004086
C 	-4.226632	1.135536	-0.108184
C 	-2.825329	1.150660	-0.111724
H 	-2.216731	-2.073136	0.202121
H 	-4.784083	-2.074509	0.203023
H 	-4.783641	2.084116	-0.200108
H 	-2.246671	2.081096	-0.204006
C 	2.140000	-0.000425	-0.000889
C 	4.311679	-0.328117	-0.600844
C 	4.307277	0.303387	0.613766
H 	5.139534	-0.668077	-1.229797
H 	5.132570	0.625755	1.255211
C 	2.538160	1.125708	2.203296
H 	2.047471	2.094958	1.989256
H 	1.814587	0.447733	2.703041
H 	3.420894	1.293327	2.846873
C 	2.553041	-1.143738	-2.193895
H 	2.089447	-2.127138	-1.979380
H 	1.806644	-0.509589	-2.709251
H 	3.430706	-1.287673	-2.850005
N 	2.982213	-0.498886	-0.964391
N 	2.979991	0.497703	0.961913
C 	0.000000	1.645321	-1.368400
O 	0.000001	2.550873	-2.121539
O 	0.000000	0.348714	2.070845
H 	0.000001	0.510783	3.033296
H 	0.000000	-1.628954	-0.611644
