38
04/12/2019 10:05, XYZ structure generated by mol3D Class, molSimplify
Ir 	0.000000	0.000000	0.000000
P 	-2.430000	-0.000482	-0.001010
C 	-3.231546	1.616199	0.424655
C 	-3.232589	-1.171512	1.198875
C 	-2.740560	-2.618097	1.144911
C 	-3.199747	-0.446605	-1.627546
C 	-2.607791	0.292410	-2.829731
C 	-2.741047	2.280567	1.711106
H 	-3.021842	2.278950	-0.439051
H 	-4.324469	1.411017	0.452084
H 	-3.047597	-0.736276	2.204210
H 	-4.328675	-1.105811	1.021039
H 	-3.062676	-1.543383	-1.739135
H 	-4.292434	-0.265890	-1.525247
H 	-1.658483	-2.676994	1.374710
H 	-3.286024	-3.241471	1.882001
H 	-2.889464	-3.076269	0.146298
H 	-2.663391	1.392797	-2.714975
H 	-1.536137	0.040424	-2.951611
H 	-3.144695	0.010621	-3.758071
H 	-2.810885	1.613627	2.595194
H 	-1.689079	2.604308	1.585444
H 	-3.348647	3.182244	1.928813
N 	2.120000	-0.000421	-0.000881
C 	4.454371	-0.384941	0.058793
O 	4.113185	1.013360	-0.197740
C 	2.780605	1.090164	-0.214239
C 	3.085523	-1.091328	0.211801
H 	2.925033	-1.536953	1.214634
H 	2.911399	-1.890249	-0.537764
H 	5.081793	-0.416165	0.971343
H 	5.052339	-0.747581	-0.800868
H 	2.285778	2.058232	-0.413975
C 	0.000000	1.645321	-1.368400
O 	0.000001	2.550873	-2.121539
C 	0.000000	0.355356	2.110290
N 	0.000001	0.551805	3.276906
H 	0.000000	-1.628954	-0.611644
