35

Ir 0.093976 -0.183531 -0.140776
H 0.009621 -0.732618 -1.744274
H 0.029097 -1.609192 -1.288259
C -1.911762 -0.135308 -0.058175
C -4.119390 0.472396 -0.075115
C -4.069761 -0.891450 0.001152
H -4.969930 1.159973 -0.096757
H -4.869329 -1.636235 0.052416
C -2.273485 -2.636397 0.045233
H -2.111952 -3.009172 -0.988125
H -1.313393 -2.659320 0.623822
H -3.050597 -3.252600 0.536858
C -2.457214 2.326352 -0.205487
H -1.947955 2.666680 0.716955
H -1.772281 2.501637 -1.054936
H -3.385497 2.910381 -0.347357
N -2.805455 0.919753 -0.114575
N -2.731248 -1.248823 0.016665
N 2.232168 -0.432218 -0.151838
C 4.231448 -1.354915 0.269191
C 2.874087 -1.472881 0.492934
N 4.391119 -0.225050 -0.517032
C 3.160077 0.309121 -0.753078
H 5.273957 0.148233 -0.865549
H 5.081178 -1.963285 0.593479
H 2.242172 -2.168951 1.068074
H 2.967949 1.222631 -1.326327
C 0.412891 1.645345 -0.026154
N 0.827769 2.809978 -0.061734
C 1.146850 3.718910 1.010864
H 0.490404 4.615894 0.966746
H 2.189474 4.089940 0.906822
H 1.041608 3.258970 2.020539
O 0.191768 -1.831413 1.311839
H -0.037704 -1.412302 2.162336
