38

Ir -0.299773 -0.008496 -0.401344
H -0.520336 -0.062387 -2.110591
H 0.262595 -0.591051 -2.102200
N -1.462939 -1.827838 -0.130328
C -1.433719 -2.193360 1.313819
C -2.871471 -1.648228 -0.569050
C -0.851879 -2.939850 -0.910380
H -3.340597 -0.834227 0.011572
H -3.441150 -2.593257 -0.421653
H -2.888333 -1.367720 -1.637640
H 0.207438 -3.041144 -0.613185
H -0.902769 -2.701686 -1.988167
H -1.402920 -3.886088 -0.715683
H -1.909445 -1.389725 1.903148
H -0.380238 -2.294708 1.631250
H -1.978942 -3.150212 1.475692
N 0.969666 1.757066 -0.595527
C 1.457503 2.169818 0.752462
C 2.155328 1.475019 -1.454644
C 0.207729 2.881347 -1.204059
H 2.771620 0.679801 -0.999957
H 2.768044 2.397477 -1.555936
H 1.815580 1.150435 -2.454345
H -0.668345 3.121525 -0.576296
H -0.151971 2.580451 -2.204449
H 0.862278 3.776992 -1.297184
H 2.051176 1.351808 1.199778
H 0.592903 2.392233 1.401860
H 2.097201 3.075650 0.658892
C -1.567355 0.987016 0.511802
N -2.441622 1.676803 1.036430
C -2.731510 2.050109 2.396523
H -3.756783 1.724402 2.672801
H -2.712787 3.155641 2.502093
H -2.014865 1.615545 3.129655
N 1.420541 -1.160164 0.239776
C 2.540649 -1.147781 0.680771
S 4.055749 -1.086321 1.252384
