29

Ir -0.093961 -0.385969 -0.148749
H -0.236525 -0.837823 -1.770709
H -0.017785 0.135653 -1.879700
N 1.936919 -0.839476 -0.234551
C 3.841215 -2.026609 -0.392286
C 2.465831 -2.116810 -0.332139
N 4.126189 -0.676910 -0.329583
C 2.964441 0.019234 -0.233505
H 5.052875 -0.250035 -0.344867
H 4.617780 -2.792530 -0.472276
H 1.818195 -2.998279 -0.339691
H 2.913483 1.114548 -0.150925
N -2.121829 0.079608 -0.114215
C -4.860220 0.726534 -0.188010
C -4.436189 -0.609931 -0.165572
C -3.068795 -0.896377 -0.129714
C -2.529945 1.376869 -0.125897
C -3.881468 1.730228 -0.164854
H -5.930579 0.979713 -0.220780
H -5.155221 -1.441641 -0.177152
H -2.693384 -1.928520 -0.108732
H -1.714525 2.116459 -0.093997
H -4.151269 2.796130 -0.174593
C -0.343557 -1.768459 1.074155
N -0.538744 -2.802486 1.719469
H -0.492078 -2.802860 2.747328
N 0.403715 1.712846 0.218394
C 1.229914 2.577243 0.334768
S 2.393307 3.702635 0.472595
