30

Ir -0.188992 0.087527 0.242897
H -0.217731 0.225897 1.932492
H -0.241720 -0.764987 1.877235
As 2.163611 -0.143653 -0.032511
C 2.552324 -0.885494 -1.792031
C 3.001239 -1.437688 1.172187
C 3.317790 1.429002 0.118652
H 1.816434 -1.709517 -1.891491
H 3.597383 -1.243588 -1.865320
H 2.349993 -0.112345 -2.556776
H 2.457028 -2.392515 1.044561
H 2.885343 -1.090462 2.216402
H 4.073144 -1.575057 0.929583
H 2.936260 2.205709 -0.571465
H 4.365860 1.176813 -0.134827
H 3.261323 1.817581 1.153340
N -2.294385 -0.106197 0.081883
C -4.645382 0.118627 0.054490
O -4.187217 -1.121554 -0.570841
C -2.852100 -1.121472 -0.490857
C -3.344134 0.834656 0.495585
H -3.281320 1.007474 1.589339
H -3.181740 1.811265 -0.005387
H -5.313035 -0.155337 0.895728
H -5.231921 0.679411 -0.700058
H -2.239183 -1.952635 -0.894399
C -0.174939 1.813363 -0.435953
O -0.147815 2.926136 -0.828520
O -0.150116 -1.945160 -0.611983
H -0.069842 -2.564658 0.135957
