47

Ir 0.413231 0.120450 -0.416252
H 0.482187 0.357823 -2.148369
H 0.143465 -0.491065 -2.197901
P -1.830799 0.842692 -0.256311
C -2.318958 1.358602 1.458464
C -3.123142 -0.413044 -0.696922
C -2.936201 -1.090268 -2.055144
C -2.305682 2.302567 -1.304150
C -1.382915 3.516382 -1.186129
C -1.951363 0.341783 2.542373
H -1.806622 2.327643 1.639699
H -3.411316 1.567253 1.441896
H -3.114710 -1.178138 0.108600
H -4.099566 0.116319 -0.634094
H -2.314412 1.923113 -2.348412
H -3.357628 2.560177 -1.049952
H -1.984670 -1.656723 -2.078471
H -3.759103 -1.810085 -2.237973
H -2.931416 -0.366225 -2.896208
H -1.356970 3.921869 -0.154424
H -0.341980 3.251269 -1.456874
H -1.723036 4.331864 -1.856364
H -2.437560 -0.642981 2.386558
H -0.857458 0.160748 2.549850
H -2.252943 0.714607 3.542380
P 2.571803 -0.774849 -0.282018
C 2.921077 -1.447554 1.392006
C 3.982902 0.354368 -0.623122
C 2.840268 -2.212683 -1.394121
H 2.886855 -0.616780 2.123090
H 3.907190 -1.952568 1.438836
H 2.111876 -2.162184 1.639504
H 3.900914 1.233729 0.045347
H 3.911166 0.712949 -1.668380
H 4.958625 -0.148758 -0.467258
H 2.024743 -2.936021 -1.196540
H 3.826348 -2.689073 -1.221797
H 2.764875 -1.877646 -2.446956
C 0.956852 1.613223 0.554845
N 1.321986 2.620801 1.145018
C 1.446074 3.022375 2.518357
H 0.784772 3.890973 2.723527
H 2.483672 3.355710 2.730377
H 1.183558 2.207127 3.229536
N -0.249191 -1.882408 0.034474
C -1.004065 -2.626043 0.600354
S -2.050834 -3.617766 1.343113
