33

Ir 0.031181 -0.279705 -0.018765
H 0.092521 -1.527234 -1.217630
H 0.091217 -0.749899 -1.782671
N 2.174624 -0.229302 -0.052774
C 2.938768 -1.184638 -0.630238
C 4.334876 -1.080308 -0.643104
N 4.988475 -0.054031 -0.073183
C 4.221827 0.882335 0.500785
C 2.818386 0.819560 0.510889
H 2.412014 -2.040253 -1.076950
H 4.939519 -1.864849 -1.129756
H 4.731099 1.736033 0.980022
H 2.196054 1.603074 0.958827
C -1.985852 -0.174557 -0.010705
C -4.193440 -0.546797 -0.421876
C -4.100882 0.569222 0.364408
H -5.064464 -1.061100 -0.838173
H -4.875704 1.229370 0.764691
C -2.247270 1.916252 1.361979
H -1.227697 1.677356 1.715783
H -2.187442 2.800625 0.698225
H -2.909656 2.115266 2.225675
C -2.564783 -2.172509 -1.416646
H -2.141006 -1.886317 -2.400140
H -1.818103 -2.782615 -0.874131
H -3.482351 -2.767793 -1.576114
N -2.896660 -0.994613 -0.632281
N -2.754447 0.773761 0.616626
C 0.016137 -0.880875 1.749277
O 0.007636 -1.237031 2.869164
N 0.034264 1.763588 -0.924491
O 1.090594 2.415857 -0.968945
O -1.024143 2.240383 -1.366300
