34

Ir 0.380858 0.034049 -0.365032
H 0.468460 0.154298 -2.064164
H -0.091954 -0.638944 -2.011344
N -1.341344 1.189003 -0.418998
C -2.716052 2.949327 -0.687928
C -1.400576 2.535187 -0.741231
N -3.441558 1.830845 -0.328847
C -2.592521 0.782176 -0.170010
H -4.451778 1.778745 -0.195695
H -3.180919 3.921950 -0.872466
H -0.493633 3.099350 -0.976829
H -2.913640 -0.226136 0.128735
N 2.139825 -1.244759 -0.269706
C 1.918081 -2.475007 -1.079568
C 3.350420 -0.546371 -0.775176
C 2.356372 -1.648021 1.148283
H 3.187074 -0.245672 -1.825800
H 4.235449 -1.218965 -0.712345
H 3.529416 0.364765 -0.176902
H 1.438344 -2.137632 1.520648
H 2.552565 -0.747599 1.756896
H 3.221392 -2.345155 1.219202
H 1.794932 -2.196489 -2.141724
H 0.994684 -2.969601 -0.728315
H 2.788336 -3.160099 -0.976163
C 1.248768 1.399008 0.557383
N 1.830733 2.366282 1.041283
C 2.049989 2.838485 2.382315
H 1.613247 3.852233 2.505293
H 3.138344 2.936206 2.581257
H 1.607122 2.171305 3.155618
N -0.757764 -1.690067 0.342575
C -1.809701 -2.169100 0.671780
S -3.262592 -2.760471 1.095147
