36

Ir 0.078613 -0.238993 0.102897
H 0.023247 -1.443667 1.427303
H 0.043681 -0.694211 1.939812
As -2.366773 -0.025594 0.087235
C -2.999785 1.420408 -1.064823
C -3.177027 0.428742 1.808260
C -3.452557 -1.544368 -0.518261
H -2.461546 2.334995 -0.750479
H -4.095434 1.556689 -0.978707
H -2.725304 1.180211 -2.109627
H -2.660781 1.337198 2.173518
H -2.997953 -0.400613 2.519001
H -4.264283 0.611219 1.704044
H -3.121876 -1.823424 -1.537379
H -4.530788 -1.290784 -0.527041
H -3.272847 -2.402816 0.156872
C 2.119138 -0.038243 0.067384
C 4.354604 -0.227783 0.463920
C 4.180095 0.768708 -0.458786
H 5.262556 -0.628579 0.923925
H 4.908185 1.407390 -0.967223
C 2.200460 1.807343 -1.619744
H 1.715469 1.256991 -2.448892
H 1.426707 2.393232 -1.084726
H 2.986456 2.473912 -2.020646
C 2.830848 -1.789420 1.708961
H 2.388255 -1.396681 2.646215
H 2.118450 -2.509055 1.261932
H 3.782083 -2.302927 1.940150
N 3.089069 -0.713866 0.767411
N 2.816498 0.868467 -0.689440
C 0.084247 -1.059818 -1.580056
O 0.074265 -1.473081 -2.683686
C -0.030874 1.719237 0.791547
C -0.141084 2.907483 1.134173
H -0.215431 3.936721 1.458335
