30

Ir -0.029994 -0.184313 -0.254010
H -0.039388 -0.671707 -1.912706
H -0.017405 -1.551483 -1.416059
N -2.108611 -0.236508 -0.234023
C -4.263662 0.228266 -0.673637
C -2.959712 0.593717 -0.942072
N -4.178368 -0.832943 0.207686
C -2.868178 -1.091759 0.458541
H -4.961367 -1.345272 0.613816
H -5.218999 0.625156 -1.028741
H -2.565965 1.388088 -1.582828
H -2.477034 -1.865971 1.130585
N 2.028931 -0.177130 -0.253570
C 4.283758 -0.824826 0.062123
O 4.156251 0.538333 -0.453910
C 2.844919 0.786263 -0.540589
C 2.842612 -1.372752 0.063474
H 2.510964 -1.794981 1.031622
H 2.653973 -2.142265 -0.713604
H 4.728304 -0.754802 1.076242
H 4.981033 -1.373581 -0.599711
H 2.534208 1.795269 -0.846581
C -0.062716 1.678844 0.080306
N -0.065264 2.885362 0.307275
C -0.095545 3.654282 1.526357
H -1.001916 4.295720 1.547079
H 0.778065 4.338686 1.566813
H -0.091336 3.016945 2.439024
C -0.028119 -1.673892 1.191294
N -0.092941 -2.487810 2.048392
