54

Ir 1.019561 -0.078506 0.299071
H 0.909295 -0.269572 1.995837
H 0.929971 0.741455 1.864116
P -1.314551 0.026885 0.043830
C -1.798166 -2.444070 1.274618
C -2.142930 -1.618506 0.182239
C -1.893968 0.686565 -1.573624
C -1.084991 0.504412 -2.712646
C -1.535551 0.943071 -3.966134
C -2.783827 1.575731 -4.087877
C -3.585570 1.769867 -2.951246
C -3.144416 1.326654 -1.694540
C -2.184392 1.065754 1.295774
C -1.670189 2.352727 1.568025
C -2.321035 3.180664 2.493705
C -3.477773 2.736149 3.156794
C -3.988410 1.457041 2.887970
C -3.347043 0.621634 1.958310
C -3.077817 -2.078867 -0.764908
C -3.662918 -3.347969 -0.618105
C -3.325568 -4.160681 0.474668
C -2.393197 -3.704375 1.423110
H -1.045233 -2.096201 1.999173
H -0.095766 0.034491 -2.600064
H -0.898347 0.801412 -4.852380
H -3.130102 1.927625 -5.072064
H -4.559959 2.274491 -3.040427
H -3.772022 1.485920 -0.804230
H -0.762811 2.697911 1.044654
H -1.916201 4.183268 2.700912
H -3.981562 3.388644 3.886685
H -4.893359 1.101769 3.404667
H -3.753486 -0.379767 1.751826
H -3.345725 -1.448091 -1.625370
H -4.386946 -3.702198 -1.367919
H -3.786143 -5.154340 0.587047
H -2.121818 -4.338386 2.281364
P 3.321245 -0.035122 0.201087
C 6.448541 0.056542 0.037601
C 5.816741 -1.196762 0.127050
C 4.428740 -1.370992 0.212194
C 4.339386 1.363269 0.078163
C 5.734852 1.269544 0.016089
H 7.547030 0.089790 -0.021269
H 6.450676 -2.099699 0.133040
H 4.000034 -2.382960 0.279190
H 3.825586 2.336266 0.032511
H 6.309008 2.208595 -0.060638
C 1.004042 -1.791470 -0.541160
N 0.969039 -2.821735 -1.201942
H 0.879552 -3.763505 -0.802224
C 1.067396 1.857189 -0.449278
C 1.095133 2.997748 -0.929793
H 1.106068 3.978576 -1.385056
