39

Ir 0.209144 0.117885 -0.254293
H 0.157945 -0.276843 -1.960665
H 0.305885 -1.124844 -1.669586
P -2.051746 -0.103441 0.013358
C -2.683937 0.571662 1.621285
C -2.696542 -1.842765 0.007592
C -2.268753 -2.701511 -1.182908
C -3.130721 0.729306 -1.253099
C -2.791335 2.193532 -1.534153
C -1.879617 0.130003 2.846223
H -2.654635 1.677304 1.521213
H -3.753814 0.277097 1.696787
H -2.308003 -2.293446 0.943584
H -3.802879 -1.761978 0.090050
H -3.024002 0.123673 -2.178283
H -4.183199 0.610956 -0.913301
H -1.179386 -2.895076 -1.125197
H -2.789372 -3.680397 -1.154521
H -2.501532 -2.231188 -2.160911
H -2.877361 2.821791 -0.624087
H -1.751131 2.287680 -1.904889
H -3.475621 2.616111 -2.297850
H -1.809345 -0.972618 2.928616
H -0.841911 0.511488 2.784881
H -2.344243 0.520104 3.774534
N 2.340471 0.189499 -0.273531
C 4.570122 -0.599083 -0.198592
O 4.440335 0.773706 0.295157
C 3.134950 1.060599 0.254124
C 3.163947 -0.950875 -0.725474
H 2.731366 -1.875512 -0.288493
H 3.105743 -1.018424 -1.832517
H 4.884736 -1.228026 0.659475
H 5.365933 -0.608557 -0.967889
H 2.814942 2.024864 0.676562
C 0.103939 1.867217 0.313980
N 0.087791 3.004565 0.801942
H -0.014491 3.830985 0.196509
Cl 0.527273 -2.126897 0.954832
