38

Ir 0.007271 -0.056298 -0.317795
H -0.000087 -1.432172 -1.383568
H 0.060627 -1.889934 -0.574270
C -2.071322 -0.001742 -0.220255
C -4.199929 0.743642 0.136033
C -4.268308 -0.602955 -0.094006
H -4.984295 1.474550 0.352499
H -5.123695 -1.284533 -0.107112
C -2.611751 -2.439814 -0.456045
H -2.097497 -2.615751 -1.420214
H -1.948597 -2.717082 0.386900
H -3.534735 -3.046809 -0.421224
C -2.375045 2.442045 0.310873
H -1.443259 2.386817 0.902825
H -2.155518 2.975133 -0.634618
H -3.145609 2.998137 0.876525
N -2.859401 1.091591 0.061255
N -2.970298 -1.037265 -0.311700
C 2.078503 -0.054997 -0.121006
C 4.148293 0.534799 0.620028
C 4.303103 -0.548173 -0.203551
H 4.884487 1.116035 1.182717
H 5.199343 -1.098137 -0.504971
C 2.765778 -1.989066 -1.561556
H 2.269188 -2.826969 -1.032753
H 2.103262 -1.647138 -2.379097
H 3.721621 -2.344174 -1.988317
C 2.198904 1.891370 1.444850
H 1.707543 2.630712 0.784349
H 1.459627 1.436540 2.131512
H 2.998775 2.386806 2.025551
N 2.794423 0.823485 0.650311
N 3.033630 -0.887955 -0.651813
C 0.127449 1.552168 -1.228053
O 0.273557 2.587157 -1.777166
N -0.116283 -0.808488 1.789842
O 0.828181 -0.624062 2.577895
O -1.136685 -1.413140 2.167319
