55

Ir 1.205908 -0.184791 -0.246720
H 1.176751 -0.548105 -1.941202
H 1.154932 -1.447467 -1.510657
P -1.071585 -0.077244 -0.085056
C -1.286723 2.037498 -1.919074
C -1.832535 1.475198 -0.745824
C -1.749459 -0.207033 1.627152
C -0.970309 0.242216 2.711114
C -1.488497 0.200912 4.013612
C -2.780529 -0.298450 4.244863
C -3.554972 -0.761382 3.168703
C -3.043218 -0.718178 1.862420
C -1.950428 -1.425396 -0.989786
C -1.619141 -2.761412 -0.670035
C -2.266471 -3.815740 -1.329099
C -3.236642 -3.551877 -2.311765
C -3.563390 -2.225586 -2.632061
C -2.925551 -1.161740 -1.971762
C -2.938392 2.096827 -0.131385
C -3.492848 3.260850 -0.688413
C -2.953436 3.809227 -1.862527
C -1.849815 3.194049 -2.476899
H -0.400266 1.569862 -2.375373
H 0.055736 0.593571 2.520727
H -0.870013 0.544923 4.856778
H -3.180920 -0.340438 5.269613
H -4.562659 -1.167582 3.346431
H -3.649368 -1.093152 1.023294
H -0.851994 -2.972118 0.092789
H -2.005884 -4.854260 -1.073352
H -3.738416 -4.383951 -2.829636
H -4.321762 -2.011983 -3.401119
H -3.189274 -0.123720 -2.223840
H -3.366642 1.676306 0.790459
H -4.352305 3.742452 -0.196935
H -3.389487 4.722403 -2.296414
H -1.415509 3.624372 -3.392398
N 3.347116 -0.327976 -0.279701
C 5.637885 0.085917 -0.716586
O 5.425577 -1.060873 0.163920
C 4.105601 -1.171336 0.340611
C 4.210719 0.573019 -1.062116
H 3.955886 0.479112 -2.137496
H 4.009714 1.622223 -0.765916
H 6.220319 -0.263973 -1.591525
H 6.241585 0.829378 -0.158189
H 3.728736 -1.969766 1.000974
C 1.332776 1.673028 0.150267
N 1.402442 2.870291 0.378216
C 1.347165 3.720186 1.533303
H 0.423063 4.335237 1.499744
H 2.204591 4.424790 1.536206
H 1.352921 3.147813 2.488259
C 1.217538 -1.795577 1.045663
N 1.320234 -2.701265 1.799830
