32

Ir -0.011253 -0.193356 -0.198204
H -0.004099 -0.502960 -1.904726
H -0.003334 -1.423544 -1.496835
N -2.085696 -0.177845 -0.218741
C -2.762255 0.849026 -0.801034
C -4.160028 0.844099 -0.870596
N -4.915123 -0.154278 -0.386104
C -4.236901 -1.160025 0.188189
C -2.839668 -1.191243 0.286789
H -2.154167 1.666963 -1.210309
H -4.679670 1.692760 -1.348243
H -4.821618 -1.999060 0.602865
H -2.294383 -2.012118 0.775518
N 2.086436 -0.198219 -0.227295
C 4.897533 -0.184456 -0.389864
C 4.133620 0.784812 -1.055357
C 2.740563 0.747621 -0.953097
C 2.825409 -1.134705 0.425543
C 4.222085 -1.155631 0.361602
H 5.996018 -0.181283 -0.454666
H 4.603985 1.574588 -1.658464
H 2.099730 1.483788 -1.457194
H 2.252664 -1.872600 1.006613
H 4.764639 -1.939608 0.909116
C 0.014640 1.638894 0.323830
N 0.035725 2.811694 0.666699
C 0.063181 3.518430 1.919548
H 0.064166 2.833505 2.796075
H -0.816528 4.191268 1.992883
H 0.965098 4.163504 1.969203
C -0.021603 -1.827240 1.073580
N -0.030698 -2.733388 1.834736
