52

Ir 0.060586 -0.236293 0.202675
H 0.128335 -0.714324 1.882505
H 0.046481 0.181507 2.063730
P -2.301411 -0.289287 0.143054
C -2.998448 -0.424495 -1.570869
C -3.168516 1.196607 0.840486
C -2.697035 1.624283 2.231149
C -3.109309 -1.694886 1.052326
C -2.536603 -3.078695 0.741994
C -2.402661 0.570219 -2.570437
H -2.798821 -1.467941 -1.895865
H -4.102207 -0.315592 -1.487088
H -3.021041 2.024178 0.116165
H -4.252902 0.948713 0.831271
H -2.989145 -1.458076 2.131185
H -4.198670 -1.643560 0.833293
H -1.630702 1.922741 2.198083
H -3.285202 2.494882 2.585004
H -2.810422 0.817528 2.984529
H -2.628370 -3.338632 -0.332086
H -1.459952 -3.127801 0.998995
H -3.068759 -3.860654 1.320630
H -2.566742 1.625574 -2.273616
H -1.307346 0.422502 -2.657041
H -2.852628 0.425869 -3.573350
P 2.393075 0.072016 0.062045
C 3.184080 0.778507 1.586619
C 2.869638 1.244960 -1.286720
C 2.364352 0.835894 -2.671475
C 3.394406 -1.452778 -0.271790
C 3.207902 -2.561071 0.766948
C 2.686824 2.169746 1.987305
H 2.973672 0.041516 2.390512
H 4.284656 0.770320 1.422482
H 2.409870 2.208768 -0.985891
H 3.974896 1.365112 -1.261350
H 3.073387 -1.807951 -1.273579
H 4.459652 -1.146528 -0.360277
H 1.260253 0.737992 -2.664292
H 2.637692 1.601164 -3.425514
H 2.788817 -0.131545 -3.009460
H 3.568684 -2.255722 1.770206
H 2.137664 -2.834915 0.861153
H 3.770472 -3.470586 0.474721
H 2.993954 2.941339 1.253649
H 1.580757 2.203545 2.043569
H 3.105062 2.459451 2.972513
C 0.137631 -1.692590 -0.924925
O 0.188128 -2.628918 -1.639192
N -0.039950 1.936968 0.023543
C -0.700520 2.798765 -0.511014
O -1.359664 3.677568 -1.008260
