42

Ir 0.051195 0.097335 -0.235476
H -0.016838 -0.052448 -1.942579
H 0.055363 -0.989720 -1.742101
P -2.238236 -0.183441 0.075186
C -2.835273 0.427619 1.723261
C -2.686958 -1.980084 0.079952
C -2.745717 -2.635964 -1.300338
C -3.401638 0.618255 -1.128164
C -3.223221 2.130980 -1.273586
C -2.040010 -0.117419 2.911093
H -2.751864 1.534278 1.682886
H -3.916943 0.181356 1.805176
H -1.847290 -2.422937 0.663405
H -3.640837 -2.101859 0.637151
H -3.211773 0.113794 -2.098808
H -4.438254 0.352658 -0.823210
H -1.797331 -2.478364 -1.853430
H -2.888038 -3.730921 -1.197532
H -3.578863 -2.251423 -1.923937
H -3.414305 2.669311 -0.323196
H -2.191871 2.379921 -1.592650
H -3.925561 2.535852 -2.030210
H -2.109179 -1.221687 2.985184
H -0.968810 0.154429 2.809839
H -2.414931 0.307797 3.864142
As 2.480781 -0.098038 -0.062190
C 3.109357 -1.841373 -0.668823
C 3.101162 -0.058884 1.792472
C 3.679966 1.188142 -0.933677
H 2.428231 -2.556752 -0.166437
H 4.167053 -2.014343 -0.390816
H 2.981297 -1.911771 -1.765680
H 2.538067 -0.844333 2.330320
H 2.862752 0.928880 2.230032
H 4.188902 -0.257206 1.857431
H 3.496027 1.161679 -2.024747
H 4.741571 0.949638 -0.726051
H 3.441274 2.202569 -0.560037
C -0.009110 1.906313 0.163363
O -0.047607 3.060740 0.402345
O 0.303656 -1.852997 0.776801
H 0.238155 -1.633784 1.725491
