36

Ir 0.107652 -0.200362 -0.042684
H 0.117567 -1.824682 -0.607273
H 0.123110 -2.002049 0.330881
P -2.191829 -0.159091 -0.042428
C -5.330515 0.004048 0.102141
C -4.618624 1.108105 -0.404910
C -3.224789 1.157065 -0.518673
C -3.306869 -1.360089 0.540955
C -4.694680 -1.167599 0.550992
H -6.428433 0.061124 0.151710
H -5.194142 1.991244 -0.730987
H -2.727684 2.052363 -0.924969
H -2.877521 -2.303546 0.913969
H -5.325944 -1.985665 0.937876
C 2.162283 -0.105286 0.042103
C 4.434793 -0.618089 -0.162940
C 4.281759 0.734777 0.544235
H 4.762847 -1.423492 0.536467
H 4.593686 1.588266 -0.103046
C 2.235323 1.883508 1.536474
H 2.010056 2.748719 0.875165
H 1.306534 1.468282 2.000378
H 2.941658 2.202532 2.328377
C 2.777004 -2.049666 -1.411677
H 2.740279 -2.974835 -0.790983
H 1.797675 -1.920029 -1.910256
H 3.560753 -2.178743 -2.185950
N 3.067196 -0.874041 -0.626798
N 2.838247 0.791491 0.789671
H 4.851949 0.801437 1.492783
H 5.148120 -0.594242 -1.012192
C 0.157907 1.253447 -1.210423
N 0.182041 2.314038 -1.842528
H 0.216667 2.303595 -2.871660
O 0.223365 -0.122982 2.143976
H -0.669784 0.126080 2.448883
