33

Ir -0.184617 -0.188702 -0.175024
H -0.288311 -0.509254 -1.847298
H -0.237735 0.455853 -1.896635
As 2.202621 -0.305216 -0.151165
C 3.023454 0.219781 1.542904
C 3.112552 0.871180 -1.419499
C 2.970934 -2.067189 -0.505402
H 2.823511 1.297458 1.700711
H 4.116113 0.041608 1.511288
H 2.562777 -0.367045 2.359108
H 2.928956 1.917190 -1.105608
H 2.694675 0.708295 -2.430619
H 4.200718 0.665368 -1.418173
H 2.529679 -2.785682 0.211330
H 4.073463 -2.046147 -0.404421
H 2.688380 -2.374773 -1.530087
N -2.323923 0.026853 -0.091622
C -5.110662 0.345459 -0.055194
C -4.257799 1.445813 0.114251
C -2.872483 1.252857 0.092037
C -3.142446 -1.041950 -0.249591
C -4.535902 -0.920832 -0.237659
H -6.204035 0.471276 -0.043329
H -4.654322 2.460306 0.265692
H -2.135925 2.065745 0.222731
H -2.644466 -2.013257 -0.381992
H -5.155267 -1.819512 -0.371040
C -0.246455 -1.710291 0.885629
N -0.308440 -2.808901 1.449183
H -0.281446 -2.876751 2.475407
N -0.016156 1.958141 0.272474
C 0.878525 2.744550 0.496448
O 1.766698 3.530324 0.719303
