41

Ir 0.030510 -0.266012 0.229233
H -0.010244 -0.847967 1.841473
H -0.050386 0.092437 2.032297
P -2.318404 -0.152115 0.098542
C -2.981148 -0.254147 -1.628390
C -3.085633 1.392233 0.778689
C -2.616958 1.790874 2.178645
C -3.222089 -1.496698 1.005248
C -2.763693 -2.922411 0.695906
C -2.314831 0.700896 -2.621782
H -2.837144 -1.309077 -1.945135
H -4.078009 -0.082353 -1.560434
H -2.870646 2.205578 0.055292
H -4.183224 1.213660 0.746456
H -3.085827 -1.268991 2.084025
H -4.303087 -1.357461 0.783414
H -1.533667 2.021716 2.168791
H -3.156995 2.698273 2.515977
H -2.799890 0.996182 2.930929
H -2.868962 -3.173747 -0.378788
H -1.698717 -3.065059 0.965172
H -3.365847 -3.655555 1.269495
H -2.430461 1.765302 -2.335617
H -1.227665 0.496569 -2.690281
H -2.755400 0.570890 -3.630626
P 2.349235 -0.118176 0.153656
C 5.450497 0.223327 0.003814
C 4.648418 1.378407 0.077335
C 3.250737 1.361279 0.147230
C 3.547521 -1.366156 0.060050
C 4.918621 -1.078126 -0.005468
H 6.542994 0.344533 -0.050480
H 5.150544 2.360681 0.077222
H 2.657468 2.287798 0.193174
H 3.200084 -2.411174 0.047198
H 5.620429 -1.926795 -0.067984
C 0.011174 -1.709039 -0.947402
O -0.029340 -2.644446 -1.655609
N 0.073510 1.897005 0.013917
C -0.522340 2.788292 -0.547653
O -1.116072 3.700750 -1.064417
