31

Ir 0.167984 0.034632 -0.216192
H 0.297923 -0.594637 -1.817453
H 0.327470 -1.415203 -1.310193
C -1.835297 0.050402 -0.159474
C -4.003591 0.567735 0.348645
C -4.020772 -0.569226 -0.408857
H -4.819329 1.143934 0.794401
H -4.854191 -1.189951 -0.749998
C -2.299505 -2.083889 -1.405830
H -1.734558 -1.839589 -2.326172
H -1.658821 -2.688713 -0.732105
H -3.207362 -2.654000 -1.675451
C -2.248734 2.055533 1.319512
H -1.366042 1.760207 1.916586
H -1.970017 2.930665 0.700917
H -3.080522 2.334303 1.993247
N -2.671811 0.930632 0.499696
N -2.701260 -0.872872 -0.710288
N 2.339884 -0.108533 -0.083038
C 4.409039 -0.719040 0.542066
C 3.062231 -0.943622 0.747862
N 4.484356 0.267366 -0.425298
C 3.216353 0.613049 -0.780638
H 5.337548 0.674264 -0.809172
H 5.300189 -1.166158 0.992730
H 2.519716 -1.624803 1.420614
H 2.963101 1.380523 -1.519643
C 0.344466 1.882275 -0.169079
O 0.566801 3.043127 -0.181814
S -0.059631 -1.849531 1.469706
H -0.473539 -1.105438 2.534962
