31

Ir -0.166443 0.001938 -0.399255
H -0.303981 -0.285194 -2.070783
H -0.103698 -1.200952 -1.791171
N -2.170420 -0.445854 -0.143279
C -4.416150 -0.416416 -0.150255
C -3.283705 0.281085 -0.523187
N -3.958570 -1.570410 0.458764
C -2.599726 -1.562541 0.452381
H -4.535760 -2.312844 0.853613
H -5.480583 -0.192930 -0.266055
H -3.183787 1.247475 -1.026330
H -1.918695 -2.317414 0.869649
N 1.863957 0.254008 -0.482484
C 4.054958 0.255914 0.381544
O 4.013428 -0.135367 -1.031174
C 2.718559 -0.195974 -1.346975
C 2.645180 0.803347 0.652370
H 2.565766 1.911350 0.626058
H 2.227263 0.440643 1.609002
H 4.876370 0.984819 0.508914
H 4.248659 -0.665633 0.968859
H 2.451938 -0.627030 -2.322536
C -0.458267 1.767961 0.126104
N -0.701542 2.950184 0.340873
C -0.765490 3.776657 1.513841
H -1.777617 4.223592 1.613063
H -0.052963 4.624531 1.425795
H -0.536654 3.220253 2.451033
N 0.287481 -1.851216 0.795401
C 1.359717 -2.120087 1.296502
O 2.431951 -2.376698 1.793001
