26

Ir 0.325255 -0.125996 -0.184633
H 0.398489 -0.287608 -1.893168
H 0.425035 0.670308 -1.816430
N 2.456622 -0.052767 -0.151925
C 4.630847 -0.579300 -0.338876
C 3.344317 -1.049786 -0.510881
N 4.492134 0.714517 0.129137
C 3.170761 1.006808 0.234497
H 5.251152 1.354996 0.363711
H 5.605910 -1.046381 -0.505172
H 2.996135 -2.026550 -0.860443
H 2.712456 1.949691 0.572425
P -1.924350 -0.055053 -0.129973
C -5.039430 0.095149 -0.043433
C -4.431460 -1.169693 -0.130725
C -3.044982 -1.374122 -0.180677
C -2.906590 1.366539 -0.016877
C -4.304446 1.294569 0.011015
H -6.138160 0.149282 -0.012285
H -5.082581 -2.059451 -0.163594
H -2.634410 -2.393526 -0.249267
H -2.364212 2.322459 0.055064
H -4.862225 2.243390 0.086669
C 0.334292 -1.691135 0.828132
O 0.350022 -2.706896 1.414843
Cl 0.326573 2.310566 0.606855
