36

Ir -0.235447 -0.082516 -0.321402
H -0.231161 -0.698313 -1.997623
H -0.152904 -1.500447 -1.639067
P -2.530565 -0.248884 -0.063519
C -3.005839 -0.219628 1.711482
C -3.224860 -1.840856 -0.666600
C -3.583543 1.043609 -0.844773
H -2.398166 -1.002720 2.208086
H -4.088800 -0.411271 1.854174
H -2.732885 0.764448 2.138769
H -2.640150 -2.643349 -0.173462
H -3.078041 -1.913369 -1.761835
H -4.302332 -1.937041 -0.423609
H -3.241552 2.038475 -0.498665
H -4.654766 0.904432 -0.594145
H -3.448930 1.000808 -1.943102
As 2.197979 -0.110099 -0.062157
C 3.285906 1.323287 -0.841520
C 3.064712 -1.744641 -0.695619
C 2.710578 -0.080361 1.823574
H 3.195365 1.280255 -1.943699
H 4.348787 1.225091 -0.546134
H 2.882767 2.294186 -0.495015
H 2.949245 -1.814064 -1.794125
H 2.519175 -2.580840 -0.216475
H 4.137591 -1.765181 -0.422204
H 2.403395 0.889254 2.259167
H 3.800260 -0.232322 1.950694
H 2.135427 -0.894816 2.305424
C -0.296769 1.757086 -0.126603
N -0.335915 2.980139 -0.073681
C -0.348922 3.962515 0.973170
H -1.259672 4.594114 0.898141
H 0.519928 4.647033 0.870407
H -0.319376 3.509458 1.990127
Cl -0.120283 -2.241212 1.073129
