32

Ir 0.211342 0.114128 0.119150
H 0.209246 1.048946 1.518782
H 0.247370 0.158722 1.951129
N 2.358487 0.067593 0.134642
C 4.565319 0.473442 0.044424
C 3.311875 1.051501 -0.029298
N 4.337014 -0.875143 0.255571
C 2.996023 -1.091711 0.304736
H 5.050598 -1.596452 0.358696
H 5.571077 0.896480 -0.035105
H 3.033229 2.097072 -0.194892
H 2.434695 -2.031555 0.447951
C -1.785282 -0.077149 0.111513
C -4.062140 0.297324 0.528021
C -3.905696 -0.961994 -0.331600
H -4.357533 0.056642 1.577491
H -4.242940 -0.799103 -1.383247
C -1.880721 -2.306329 -1.013663
H -1.929878 -2.145482 -2.115027
H -0.828357 -2.430795 -0.667003
H -2.455731 -3.222181 -0.765825
C -2.433204 2.102897 1.165929
H -2.451802 1.995872 2.275795
H -1.431965 2.460311 0.863426
H -3.194327 2.856111 0.874725
N -2.708856 0.853610 0.497071
N -2.459243 -1.182566 -0.299926
H -4.455095 -1.839240 0.067116
H -4.803578 1.017908 0.125240
C 0.123445 1.149991 -1.410755
O 0.050800 1.888306 -2.327114
F 0.517304 -2.032203 0.468420
