74

Ir -0.021123 0.238935 0.256233
H -0.043633 0.603435 1.907236
H -0.022199 -0.372886 1.973858
P 2.313336 0.052953 0.085321
C 2.822080 2.700488 0.837784
C 3.288527 1.613535 0.069134
C 2.780320 -0.831984 -1.462080
C 1.995918 -0.649937 -2.619074
C 2.349706 -1.290347 -3.814938
C 3.483612 -2.118132 -3.865625
C 4.263054 -2.307571 -2.713342
C 3.913093 -1.670153 -1.512299
C 3.065435 -0.961451 1.423279
C 2.482353 -2.225882 1.668681
C 3.007878 -3.041065 2.680397
C 4.100189 -2.604891 3.451653
C 4.672049 -1.346365 3.208935
C 4.158912 -0.521164 2.193729
C 4.488446 1.741251 -0.660740
C 5.214999 2.941095 -0.613319
C 4.752467 4.017258 0.161546
C 3.555686 3.894982 0.886378
H 1.870071 2.605986 1.383872
H 1.092855 -0.022377 -2.565903
H 1.726274 -1.148735 -4.711223
H 3.755891 -2.624953 -4.804359
H 5.147022 -2.963063 -2.744747
H 4.516774 -1.835965 -0.606768
H 1.617085 -2.534531 1.052963
H 2.556719 -4.027129 2.871842
H 4.505944 -3.248809 4.247411
H 5.525225 -1.000323 3.812727
H 4.610139 0.464716 2.004486
H 4.851865 0.903094 -1.274457
H 6.147521 3.036269 -1.190643
H 5.322865 4.958368 0.193506
H 3.182849 4.739495 1.485834
P -2.367239 0.041578 0.100307
C -3.425629 2.566423 -0.609235
C -3.230112 1.629103 0.427728
C -3.119931 -1.218936 1.214461
C -2.338500 -2.355907 1.514662
C -2.886056 -3.380614 2.301939
C -4.200413 -3.281438 2.787146
C -4.982553 -2.158923 2.468350
C -4.449465 -1.130100 1.676419
C -2.897194 -0.545309 -1.565338
C -2.012310 -1.403544 -2.254846
C -2.385456 -1.916148 -3.506849
C -3.627716 -1.583963 -4.072537
C -4.515812 -0.750962 -3.372343
C -4.157985 -0.236985 -2.115990
C -3.532157 1.999563 1.756546
C -4.055393 3.270437 2.035192
C -4.269795 4.190568 0.995925
C -3.947377 3.837110 -0.323620
H -3.155316 2.310235 -1.644225
H -1.321391 -2.431241 1.084096
H -2.276968 -4.267803 2.534778
H -4.622050 -4.085814 3.409817
H -6.017613 -2.082938 2.835961
H -5.071801 -0.258461 1.422291
H -1.060155 -1.697417 -1.772409
H -1.694658 -2.585950 -4.042437
H -3.911031 -1.983289 -5.058858
H -5.496686 -0.499609 -3.804731
H -4.863367 0.407229 -1.568982
H -3.349869 1.292351 2.580045
H -4.291931 3.544807 3.074723
H -4.679228 5.188213 1.216728
H -4.094647 4.558542 -1.141731
C -0.069962 1.791759 -0.752519
O -0.106198 2.822152 -1.317124
F 0.120292 -1.922823 -0.187691
