31

Ir -0.235529 -0.158624 -0.164022
H -0.319568 -0.496460 -1.813231
H -0.334674 0.514824 -1.829169
P 2.012845 -0.238389 -0.125735
C 5.130589 -0.420222 -0.096034
C 4.527455 0.850104 -0.123891
C 3.143723 1.075126 -0.140965
C 2.989341 -1.669242 -0.089805
C 4.389220 -1.615214 -0.078328
H 6.229265 -0.481228 -0.085679
H 5.182776 1.737320 -0.131049
H 2.756595 2.106774 -0.147530
H 2.464979 -2.637210 -0.069785
H 4.939921 -2.570723 -0.054946
N -2.394130 -0.076606 -0.105789
C -5.193440 0.045227 -0.087446
C -4.422304 1.162367 0.263509
C -3.026573 1.068925 0.244482
C -3.132194 -1.162740 -0.440790
C -4.530290 -1.138058 -0.444720
H -6.292989 0.094035 -0.081488
H -4.890529 2.113758 0.554741
H -2.346654 1.901271 0.501065
H -2.566455 -2.067940 -0.703984
H -5.083805 -2.045342 -0.726184
C -0.281656 -1.729881 0.859031
N -0.340855 -2.850119 1.362421
H -0.333823 -2.999586 2.379448
N -0.253698 1.935972 0.411751
C 0.457628 2.918234 0.408498
O 1.143725 3.905989 0.425442
