51

Ir -1.254609 -0.344891 -0.187945
H -1.221454 -0.967919 -1.793897
H -1.294954 -0.043196 -2.010095
P 1.019257 -0.118721 -0.085486
C 1.545853 -2.870404 -0.305112
C 1.989314 -1.651095 0.246703
C 1.568552 1.051598 1.227544
C 1.020424 0.906723 2.519855
C 1.399489 1.783631 3.544099
C 2.319075 2.814254 3.288107
C 2.861564 2.963574 2.003829
C 2.490633 2.085258 0.973151
C 1.759923 0.551886 -1.637436
C 1.109369 1.632849 -2.273374
C 1.658027 2.187926 -3.438552
C 2.844708 1.667755 -3.982900
C 3.487485 0.589296 -3.355569
C 2.950757 0.032039 -2.183163
C 3.178692 -1.620179 1.003548
C 3.916809 -2.797988 1.200385
C 3.475636 -4.008961 0.643036
C 2.289966 -4.042937 -0.109700
H 0.602645 -2.891532 -0.873635
H 0.278787 0.116699 2.713163
H 0.960443 1.670512 4.546999
H 2.602300 3.512201 4.090804
H 3.572207 3.777615 1.794384
H 2.911271 2.214103 -0.035099
H 0.175075 2.030814 -1.841717
H 1.149875 3.033479 -3.927246
H 3.268383 2.103224 -4.901176
H 4.414743 0.174380 -3.779963
H 3.460560 -0.812367 -1.695664
H 3.524227 -0.672859 1.444974
H 4.841040 -2.768415 1.797774
H 4.054211 -4.931970 0.802548
H 1.935592 -4.992073 -0.540177
N -3.402129 -0.342574 -0.264538
C -5.569079 -0.930812 -0.318612
C -4.276455 -1.411191 -0.236710
N -5.447937 0.444512 -0.397438
C -4.129584 0.770918 -0.360999
H -6.215214 1.113582 -0.466554
H -6.537736 -1.439085 -0.324830
H -3.915826 -2.441287 -0.154938
H -3.687710 1.776300 -0.391816
C -1.240140 -1.630797 1.146424
O -1.239199 -2.478934 1.962407
N -1.427421 1.852407 -0.097639
C -1.033005 2.774714 0.591565
O -0.676807 3.729746 1.225198
