42

Ir -0.036330 0.138441 -0.296929
H -0.100940 0.329079 -2.013991
H 0.032000 -0.591733 -2.014472
As -2.448873 -0.311414 -0.144786
C -2.910972 -0.995618 1.626310
C -3.090933 -1.739873 -1.315502
C -3.766703 1.118849 -0.403929
H -2.232249 -1.849436 1.814085
H -3.969995 -1.314568 1.680656
H -2.709258 -0.202627 2.371448
H -2.407425 -2.595945 -1.155651
H -3.016330 -1.407557 -2.368616
H -4.135164 -2.022522 -1.079084
H -3.523638 1.942949 0.294389
H -4.796268 0.757101 -0.214450
H -3.686991 1.498851 -1.440445
C 1.998013 0.227682 -0.168509
C 4.267197 0.218630 -0.778703
C 4.149396 -0.106221 0.718795
H 4.589382 -0.664642 -1.377794
H 4.577260 0.693049 1.367889
C 2.176773 -0.558472 2.210271
H 2.606133 0.101112 2.996309
H 1.078234 -0.443281 2.191863
H 2.424402 -1.616039 2.439102
C 2.583842 1.019942 -2.471051
H 2.531246 0.166802 -3.186236
H 1.609182 1.541929 -2.470429
H 3.367174 1.722253 -2.823715
N 2.893878 0.593579 -1.128075
N 2.700809 -0.188799 0.912576
H 4.638049 -1.063173 0.995853
H 4.974558 1.046862 -0.993723
C -0.211768 1.683621 0.727950
N -0.335152 2.653802 1.465941
C -0.478915 4.069001 1.263296
H 0.344720 4.615380 1.770219
H -1.425713 4.428438 1.720041
H -0.478494 4.354429 0.186840
N 0.042727 -2.016864 0.171404
C 0.841930 -2.851654 0.535113
O 1.607172 -3.702165 0.916782
