33

Ir -0.000007 -0.023928 0.138542
H -0.000013 -0.217187 1.832438
H -0.000010 -1.174014 1.597414
N 2.163460 -0.159876 0.057601
C 2.594290 0.054825 -1.350410
C 2.823764 0.835981 0.936509
C 2.561813 -1.538668 0.465594
H 2.544606 1.856210 0.616331
H 3.930048 0.717318 0.888056
H 2.479220 0.689841 1.975998
H 1.953702 -2.244318 -0.136951
H 2.326908 -1.679995 1.536111
H 3.652694 -1.681356 0.300370
H 2.288845 1.063236 -1.681715
H 2.094899 -0.702968 -1.980058
H 3.699317 -0.053970 -1.434926
N -2.163472 -0.159840 0.057596
C -2.594295 0.054846 -1.350419
C -2.561848 -1.538619 0.465608
C -2.823762 0.836041 0.936486
H -1.953756 -2.244288 -0.136935
H -3.652732 -1.681290 0.300397
H -2.326933 -1.679940 1.536124
H -2.544582 1.856260 0.616295
H -2.479227 0.689909 1.975979
H -3.930049 0.717399 0.888028
H -2.094916 -0.702966 -1.980055
H -2.288831 1.063246 -1.681739
H -3.699323 -0.053931 -1.434937
C 0.000037 1.775380 -0.279001
O 0.000108 2.934127 -0.529814
O -0.000011 -1.893977 -0.981294
H -0.000041 -1.656620 -1.927660
