40

Ir -0.049271 -0.028126 -0.237219
H -0.102827 -1.115602 -1.613912
H -0.018359 -1.735779 -0.912674
C -2.128737 -0.069790 -0.133729
C -4.325090 0.519553 0.110102
C -4.272118 -0.844897 0.046498
H -5.173687 1.199453 0.228432
H -5.065420 -1.595951 0.101315
C -2.462946 -2.563369 -0.128254
H -2.069998 -2.823063 -1.131419
H -1.657718 -2.685333 0.624031
H -3.309091 -3.232393 0.114708
C -2.654906 2.378767 0.094188
H -1.810737 2.496883 0.798582
H -2.344512 2.779365 -0.890064
H -3.528107 2.949373 0.461133
N -3.017269 0.974110 0.005053
N -2.935059 -1.187142 -0.096706
C 2.022663 -0.074757 -0.043332
C 4.155204 0.314294 0.867557
C 4.279399 -0.689829 -0.285677
H 4.619555 1.300186 0.628694
H 4.514226 -1.719207 0.073951
C 2.658802 -1.406713 -2.070530
H 2.485664 -2.487424 -1.861225
H 1.758825 -0.995489 -2.563334
H 3.518889 -1.318893 -2.765645
C 2.172236 1.295290 2.051868
H 2.543868 2.339767 1.945722
H 1.069441 1.279082 1.987149
H 2.477235 0.904134 3.045042
N 2.705012 0.460118 0.999925
N 2.937470 -0.650657 -0.873509
H 5.051692 -0.409020 -1.031669
H 4.607170 -0.048524 1.813998
C 0.146322 1.744224 -0.824682
O 0.391117 2.855755 -1.136108
C -0.137828 -0.954322 1.625419
C -0.199929 -1.483272 2.745349
H -0.250659 -1.927977 3.729917
