28

Ir -0.153532 0.026854 -0.183165
H -0.138481 0.285919 -1.841504
H -0.163881 -0.733791 -1.844547
N -2.220239 -0.064174 -0.109998
C -4.424519 0.347056 -0.181734
C -3.175132 0.877302 -0.441504
N -4.194015 -0.924704 0.312450
C -2.853742 -1.148513 0.347706
H -4.905558 -1.592541 0.608499
H -5.430435 0.758910 -0.304695
H -2.892478 1.861150 -0.828217
H -2.284460 -2.033897 0.684986
N 1.912692 -0.065939 -0.091805
C 4.706337 -0.292056 0.082103
C 4.109332 0.875406 -0.415176
C 2.715070 0.955877 -0.486397
C 2.482721 -1.200103 0.400613
C 3.869336 -1.340190 0.496970
H 5.801398 -0.381306 0.148465
H 4.712867 1.731657 -0.749562
H 2.196796 1.851325 -0.857453
H 1.730463 -1.964419 0.695288
H 4.283310 -2.274917 0.903263
C -0.154107 1.659813 0.706967
N -0.144061 2.818017 1.147290
H -0.171174 2.970752 2.165729
O -0.231337 -2.084586 0.474963
H -0.198098 -2.619906 -0.339093
