32

Ir 0.307716 0.054522 -0.215406
H 0.332613 0.117832 -1.976015
H 0.288557 -0.828197 -1.812812
N -1.740171 0.041889 -0.173449
C -2.510772 0.287270 -1.264160
C -3.905831 0.235636 -1.183838
N -4.565289 -0.032292 -0.043923
C -3.792221 -0.269611 1.026325
C -2.391960 -0.249691 0.983613
H -1.983893 0.536329 -2.195736
H -4.507528 0.430619 -2.088344
H -4.297920 -0.496665 1.980712
H -1.764145 -0.478134 1.855036
N 2.500098 -0.012187 -0.182028
C 2.962430 -0.166098 1.227869
C 2.994549 -1.175307 -0.970339
C 3.078047 1.232190 -0.753208
H 2.548000 -2.099544 -0.560870
H 4.104773 -1.223609 -0.916672
H 2.685310 -1.061955 -2.025421
H 2.740041 2.099855 -0.159885
H 2.722747 1.359914 -1.791708
H 4.190169 1.178564 -0.740028
H 2.515821 -1.086492 1.646272
H 2.619188 0.698967 1.822961
H 4.073343 -0.226009 1.255758
C 0.323445 1.612551 0.840086
N 0.314027 2.450623 1.751944
H 0.327406 3.454773 1.518335
C 0.294757 -1.853467 0.565355
C 0.267106 -2.952843 1.140314
H 0.233407 -3.914466 1.634794
