45

Ir 0.117850 0.200410 -0.116076
H 0.018042 1.388654 -1.492641
H 0.051655 0.671958 -2.006611
P -2.233905 -0.016709 -0.062616
C -2.869957 -0.682255 1.551348
C -2.999035 -1.158620 -1.308763
C -2.642674 -0.849993 -2.763181
C -3.233295 1.539293 -0.283405
C -2.815993 2.702352 0.617846
C -2.181162 -1.970181 2.006982
H -2.701362 0.125347 2.295159
H -3.970365 -0.812238 1.454565
H -2.624600 -2.167932 -1.041384
H -4.097725 -1.139986 -1.136758
H -3.115218 1.818951 -1.352184
H -4.303705 1.272916 -0.139083
H -1.550026 -0.951339 -2.916963
H -3.148193 -1.563974 -3.445093
H -2.948753 0.171981 -3.068878
H -2.920165 2.455724 1.694109
H -1.754743 2.971349 0.446413
H -3.440218 3.597537 0.419778
H -2.330950 -2.800022 1.287830
H -1.087753 -1.811468 2.090025
H -2.571751 -2.295529 2.992616
C 2.181569 0.100112 -0.078975
C 4.278282 -0.599036 0.460818
C 4.406432 0.393786 -0.473559
H 5.035221 -1.195585 0.978268
H 5.294897 0.833022 -0.936554
C 2.809172 1.864070 -1.738593
H 2.389968 1.439192 -2.672443
H 2.059752 2.550872 -1.300689
H 3.733192 2.423694 -1.973155
C 2.347236 -1.720411 1.626921
H 1.823144 -1.187119 2.443281
H 1.615699 -2.356529 1.089529
H 3.164230 -2.336293 2.046361
N 2.920460 -0.761200 0.690069
N 3.119007 0.813420 -0.784451
C 0.100802 1.041559 1.551293
O 0.086741 1.432846 2.663867
C 0.172460 -1.747092 -0.828942
C 0.211607 -2.937715 -1.177107
H 0.251011 -3.967638 -1.504768
