37

Ir -0.003209 0.362244 -0.182289
H -0.047437 1.051545 -1.718733
H 0.068160 0.086774 -1.960027
P -2.307234 0.044557 -0.157228
C -5.373253 -0.585511 -0.050251
C -4.470027 -1.654784 -0.207060
C -3.080352 -1.503868 -0.267697
C -3.618200 1.164418 0.027881
C -4.958863 0.753037 0.062929
H -6.450654 -0.807418 -0.012258
H -4.881963 -2.675470 -0.283805
H -2.403123 -2.365912 -0.377281
H -3.366773 2.232285 0.124191
H -5.733962 1.528343 0.186431
C 2.048007 0.325720 -0.043431
C 4.330589 0.333257 -0.604830
C 4.121634 -0.491103 0.673616
H 4.841825 -0.238130 -1.407168
H 4.789061 -0.186905 1.506118
C 2.163460 -0.792548 2.211116
H 2.671944 -0.354462 3.095996
H 1.083955 -0.567994 2.258961
H 2.307615 -1.893783 2.214440
C 2.713840 1.382950 -2.224256
H 2.659972 0.701439 -3.101917
H 1.765383 1.944450 -2.150947
H 3.538537 2.106534 -2.395085
N 2.955159 0.666649 -0.993697
N 2.716200 -0.223527 0.998419
H 4.246921 -1.583604 0.502374
H 4.913576 1.267129 -0.430024
C -0.086525 1.626272 1.199170
N -0.114015 2.407817 2.145256
H -0.178329 3.427588 2.041012
N 0.141777 -1.835927 -0.158393
C 1.077605 -2.602290 -0.081367
O 1.991191 -3.383992 0.023297
