55

Ir 1.246061 -0.143309 0.220231
H 1.169910 -0.174988 2.060749
H 1.215034 0.685308 2.034426
P -1.123717 -0.002746 0.034147
C -1.557740 -2.689712 0.728034
C -1.932318 -1.653700 -0.155369
C -1.725211 0.946885 -1.421000
C -0.973627 0.894126 -2.611935
C -1.432802 1.554953 -3.759713
C -2.638243 2.275747 -3.724509
C -3.384864 2.334265 -2.536799
C -2.932693 1.671190 -1.385103
C -2.011838 0.723904 1.486011
C -1.588015 1.977198 1.981226
C -2.237013 2.550448 3.083908
C -3.308287 1.885633 3.704368
C -3.734824 0.643217 3.211322
C -3.092855 0.062198 2.105195
C -2.910275 -1.904425 -1.138010
C -3.503246 -3.174213 -1.234441
C -3.132321 -4.197903 -0.349425
C -2.159120 -3.952059 0.633984
H -0.780062 -2.502521 1.485005
H -0.017439 0.346623 -2.620480
H -0.838477 1.516485 -4.685421
H -2.993107 2.801010 -4.624631
H -4.325500 2.905261 -2.502690
H -3.516158 1.724575 -0.453374
H -0.763726 2.502359 1.473368
H -1.901615 3.529426 3.459786
H -3.812819 2.338163 4.572096
H -4.576222 0.117019 3.688127
H -3.438267 -0.910650 1.726081
H -3.207619 -1.106205 -1.834071
H -4.260818 -3.362097 -2.010775
H -3.597767 -5.192369 -0.428860
H -1.858247 -4.752453 1.327166
P 3.603203 -0.232027 0.207790
C 4.421350 0.935596 1.365568
C 4.351089 0.108249 -1.432255
C 4.303610 -1.868762 0.681945
H 4.082811 1.953601 1.095847
H 5.524552 0.862018 1.284706
H 4.107144 0.699773 2.401058
H 3.984728 1.102937 -1.748660
H 4.002304 -0.660887 -2.148136
H 5.458493 0.100157 -1.378118
H 3.963976 -2.127911 1.703588
H 5.411889 -1.848718 0.653654
H 3.929521 -2.644906 -0.013513
C 1.245335 -1.827044 -0.550353
O 1.309567 -2.855588 -1.116954
N 1.405595 2.003775 -0.240490
O 0.385792 2.716213 -0.283452
O 2.512488 2.496152 -0.539126
