34

Ir -0.455070 -0.126820 -0.254478
H -0.521579 -0.350796 -1.972562
H -0.529472 -1.249963 -1.718663
N -2.698697 -0.236697 -0.124455
C -3.055803 -0.274244 1.320027
C -3.336397 0.933483 -0.772166
C -3.187122 -1.482844 -0.771960
H -2.999568 1.862216 -0.277633
H -4.445360 0.858764 -0.697505
H -3.041093 0.974729 -1.836750
H -2.654406 -2.343028 -0.322517
H -2.969157 -1.444294 -1.855283
H -4.285719 -1.581952 -0.623663
H -2.711504 0.656183 1.806898
H -2.537616 -1.135992 1.782572
H -4.158864 -0.373767 1.436619
P 1.776005 -0.098881 -0.166855
C 4.895531 -0.101394 0.022425
C 4.201929 -1.298661 0.282398
C 2.809276 -1.431546 0.234269
C 2.853695 1.231683 -0.435004
C 4.244587 1.098053 -0.315511
H 5.994024 -0.103599 0.088833
H 4.790473 -2.193353 0.547835
H 2.301328 -2.380186 0.469500
H 2.409673 2.201321 -0.708479
H 4.864274 1.991609 -0.501715
C -0.486906 1.603617 0.453838
N -0.519619 2.701599 0.984110
C -0.534587 4.081754 0.597949
H -0.539860 4.218277 -0.506814
H 0.354587 4.601061 1.013234
H -1.427047 4.588597 1.021201
Cl -0.434696 -2.409483 0.896313
