34

Ir -0.189565 -0.202112 -0.212662
H -0.137969 -0.460205 -1.958827
H -0.124993 -1.353860 -1.646307
N -2.374149 -0.259549 -0.202149
C -2.854092 -0.145614 1.206577
C -2.946805 0.854130 -1.003285
C -2.866564 -1.549062 -0.764021
H -2.619067 1.819111 -0.578721
H -4.058855 0.799645 -0.994825
H -2.577580 0.786420 -2.042519
H -2.442586 -2.384976 -0.179597
H -2.536443 -1.641595 -1.814668
H -3.977953 -1.578534 -0.724108
H -2.501034 0.808369 1.637081
H -2.432517 -0.979134 1.796466
H -3.966376 -0.183306 1.230382
N 1.871609 -0.210781 -0.142289
C 4.151155 0.369535 -0.424345
O 3.969518 -0.869029 0.328223
C 2.654109 -1.080479 0.416366
C 2.714118 0.846414 -0.734627
H 2.492891 0.928967 -1.817355
H 2.452903 1.816365 -0.265465
H 4.748632 0.129565 -1.326464
H 4.728480 1.068316 0.212768
H 2.298093 -1.973122 0.954724
C -0.219681 1.562066 0.447795
N -0.266191 2.623455 1.069739
C -0.289814 3.999422 0.644227
H 0.554207 4.555923 1.104359
H -1.220063 4.492044 0.999226
H -0.229379 4.118098 -0.462334
C -0.188730 -1.974748 0.851360
N -0.164439 -2.945009 1.529715
