37

Ir -0.214814 -0.224110 0.084811
H -0.257812 -1.467791 1.343995
H -0.178093 -0.707046 1.870943
P -2.561888 -0.013465 0.149331
C -3.177811 1.363556 -0.900507
C -3.242534 0.378973 1.811627
C -3.543857 -1.468676 -0.409250
H -2.668344 2.288320 -0.565223
H -4.277909 1.478028 -0.822875
H -2.892499 1.165695 -1.951901
H -2.744837 1.303736 2.164372
H -2.997502 -0.444121 2.510794
H -4.340976 0.524753 1.775735
H -3.243226 -1.724041 -1.444472
H -4.633577 -1.265568 -0.376842
H -3.306733 -2.333976 0.239934
C 1.856364 -0.070774 0.030614
C 4.124958 -0.337499 0.587678
C 3.982852 0.837415 -0.393508
H 4.424609 -0.005550 1.608360
H 4.467919 0.640226 -1.377072
C 1.984510 2.013016 -1.367109
H 2.557143 2.091181 -2.316612
H 0.925183 1.789796 -1.585015
H 2.027727 2.982652 -0.827944
C 2.494634 -2.082572 1.384801
H 2.397206 -1.867080 2.473527
H 1.553844 -2.541159 1.029078
H 3.321933 -2.808745 1.245950
N 2.768738 -0.894303 0.612943
N 2.530848 0.942323 -0.560828
H 4.403049 1.785890 0.001645
H 4.860248 -1.099735 0.254197
C -0.268885 -0.964284 -1.639043
O -0.320871 -1.362041 -2.745064
C -0.271792 1.718574 0.806947
N -0.369874 2.843824 1.157320
