54

Ir -1.159654 -0.387055 -0.221939
H -1.089025 -0.255167 -2.137599
H -1.169052 0.566908 -2.159649
P 1.173138 -0.061732 -0.033297
C 1.879490 -2.679148 -0.735012
C 2.163008 -1.612573 0.144942
C 1.679770 0.954548 1.418293
C 0.865020 0.939516 2.568321
C 1.250703 1.655413 3.710752
C 2.441362 2.400737 3.708473
C 3.247813 2.430105 2.559062
C 2.870217 1.709733 1.414802
C 1.985093 0.789553 -1.462092
C 1.439725 2.016145 -1.902146
C 2.030799 2.700701 -2.973484
C 3.161070 2.171129 -3.619452
C 3.703567 0.952164 -3.185094
C 3.121662 0.262157 -2.108381
C 3.178216 -1.764431 1.110055
C 3.903075 -2.965379 1.187617
C 3.626526 -4.017350 0.300718
C 2.613618 -3.870756 -0.662232
H 1.064907 -2.572646 -1.468520
H -0.082990 0.379227 2.541895
H 0.607253 1.644901 4.603855
H 2.737108 2.970528 4.603017
H 4.175996 3.022129 2.549501
H 3.500594 1.739974 0.512683
H 0.551360 2.432053 -1.395534
H 1.600259 3.657506 -3.307264
H 3.619327 2.709998 -4.463235
H 4.589394 0.530659 -3.685058
H 3.556845 -0.690579 -1.772275
H 3.403437 -0.943150 1.806530
H 4.691006 -3.076396 1.948588
H 4.196799 -4.957052 0.363602
H 2.383248 -4.695641 -1.353716
P -3.494305 -0.545463 -0.193871
C -4.345566 0.526979 -1.421722
C -4.217864 -0.037899 1.417486
C -4.211886 -2.213944 -0.501237
H -3.998578 1.565405 -1.250901
H -5.447227 0.461408 -1.315679
H -4.049227 0.215035 -2.442208
H -3.842226 0.981524 1.636384
H -3.853900 -0.726614 2.204193
H -5.326364 -0.048005 1.389545
H -3.935154 -2.538970 -1.523121
H -5.315974 -2.203726 -0.400073
H -3.771732 -2.935629 0.213691
C -1.047275 -2.066691 0.498074
N -0.999607 -3.217065 0.932877
H -0.953582 -3.448007 1.931086
Br -1.564665 2.227448 0.215156
