40

Ir -0.146342 0.028215 -0.223370
H -0.145524 0.118469 -1.912334
H -0.193396 -0.864505 -1.833253
N -2.296380 -0.037046 -0.117551
C -3.103878 0.941393 -0.587840
C -4.496702 0.829081 -0.475091
N -5.097564 -0.227055 0.094966
C -4.276411 -1.184438 0.561449
C -2.880605 -1.110500 0.467357
H -2.613319 1.813611 -1.045003
H -5.143345 1.634253 -0.865831
H -4.744611 -2.061641 1.041223
H -2.150177 -1.869192 0.827474
P 2.113866 -0.143987 0.051482
C 3.103731 1.423507 0.011769
C 3.005938 -1.210218 -1.183056
C 2.462427 -2.629000 -1.354703
C 2.508296 -0.929803 1.680561
C 2.156967 -0.064506 2.892020
C 2.965595 2.229101 -1.281819
H 2.738602 2.022859 0.871170
H 4.162358 1.156486 0.223691
H 2.959128 -0.659829 -2.146569
H 4.073979 -1.223737 -0.872259
H 1.859954 -1.833348 1.661108
H 3.577093 -1.235214 1.679539
H 1.420761 -2.607703 -1.733925
H 3.075625 -3.193204 -2.086762
H 2.464218 -3.194213 -0.401888
H 2.794892 0.840294 2.969042
H 1.098631 0.263075 2.837273
H 2.286103 -0.641125 3.830342
H 3.338583 1.671004 -2.164736
H 1.905567 2.494289 -1.465550
H 3.546886 3.171269 -1.217560
C -0.139156 1.775451 0.415735
N -0.153780 2.976158 0.710131
H -0.149517 3.283087 1.691775
O -0.186865 -1.984604 0.619774
H -0.110374 -2.625690 -0.109006
