33

Ir 0.000002 0.037074 0.178388
H 0.000009 0.039299 1.965735
H 0.000007 -0.873715 1.819318
N 2.184448 -0.032234 0.138780
C 2.647403 -0.067201 -1.279566
C 2.769802 1.155799 0.815650
C 2.679345 -1.259826 0.825718
H 2.451781 2.076560 0.295528
H 3.880787 1.090107 0.807091
H 2.408057 1.200074 1.858632
H 2.249604 -2.150264 0.333657
H 2.359319 -1.243223 1.883275
H 3.789969 -1.293743 0.778199
H 2.303298 0.843243 -1.801297
H 2.210346 -0.950869 -1.777786
H 3.758767 -0.118898 -1.311327
N -2.184445 -0.032229 0.138783
C -2.647406 -0.067252 -1.279560
C -2.679339 -1.259793 0.825773
C -2.769796 1.155833 0.815606
H -2.249596 -2.150249 0.333749
H -3.789964 -1.293716 0.778253
H -2.359317 -1.243143 1.883330
H -2.451782 2.076572 0.295441
H -2.408045 1.200153 1.858584
H -3.880782 1.090139 0.807058
H -2.210358 -0.950944 -1.777745
H -2.303297 0.843166 -1.801330
H -3.758771 -0.118942 -1.311313
C 0.000005 1.745033 -0.580736
O -0.000004 2.769728 -1.169016
C -0.000010 -1.831069 -0.697588
N -0.000022 -2.866003 -1.273642
