35

Ir -0.281357 0.151723 -0.342281
H -0.421218 0.293573 -2.040177
H -0.217510 -0.651311 -1.992851
N -2.349052 -0.361639 -0.187642
C -3.332589 0.547925 -0.395532
C -4.680826 0.173190 -0.324613
N -5.075692 -1.080339 -0.052983
C -4.089867 -1.968247 0.155358
C -2.731045 -1.631616 0.093640
H -3.017450 1.577928 -0.615958
H -5.466128 0.929192 -0.499204
H -4.381100 -3.007672 0.385362
H -1.911916 -2.348413 0.269214
As 2.073617 0.606071 -0.350729
C 2.580997 2.399999 -0.938677
C 3.146148 -0.577457 -1.471820
C 2.926192 0.431234 1.395497
H 2.259384 2.532138 -1.989179
H 3.675623 2.545083 -0.855867
H 2.046747 3.138176 -0.311004
H 2.730877 -0.579745 -2.497106
H 3.091916 -1.598457 -1.043152
H 4.198289 -0.232263 -1.486690
H 2.384406 1.066740 2.120538
H 3.988886 0.736978 1.333752
H 2.857716 -0.631140 1.704849
C -0.557751 1.783235 0.531274
N -0.761103 2.899110 0.986951
C -0.790637 3.515551 2.283295
H -1.792722 3.953027 2.475163
H -0.063722 4.353791 2.323363
H -0.554896 2.801062 3.103009
N 0.234176 -1.847491 0.339066
C 1.135561 -2.571310 0.674753
S 2.365785 -3.527763 1.120554
