36

Ir -0.060346 -0.052907 -0.064987
H -0.101816 -0.010084 -1.805090
H -0.142517 -0.934819 -1.712177
N -2.242628 -0.017653 -0.079017
C -5.043388 -0.050217 -0.258152
C -4.339561 1.163572 -0.241428
C -2.943615 1.137797 -0.153757
C -2.916671 -1.194738 -0.083293
C -4.312914 -1.244273 -0.174240
H -6.141711 -0.062623 -0.334753
H -4.860430 2.130482 -0.297054
H -2.346393 2.060810 -0.138302
H -2.239069 -2.071184 0.028243
H -4.816322 -2.222538 -0.178661
C 1.955672 -0.081270 -0.113083
C 4.201268 -0.786905 -0.088387
C 4.166426 0.736509 -0.220420
H 4.840783 -1.143297 0.745509
H 4.783208 1.119922 -1.060244
C 2.337244 2.327421 -0.810608
H 2.967319 2.691380 -1.650851
H 1.278017 2.307611 -1.123206
H 2.446549 3.038110 0.040197
C 2.460462 -2.514754 0.361839
H 1.344970 -2.620339 0.421365
H 2.853400 -3.125126 -0.483734
H 2.936885 -2.883215 1.296671
N 2.796582 -1.120960 0.153555
N 2.745976 0.990523 -0.450512
H 4.506873 1.253212 0.708466
H 4.555077 -1.290992 -1.019258
C -0.012235 1.492816 0.947256
N -0.018414 2.438107 1.750894
H 0.021297 3.403595 1.392462
O -0.387772 -2.174941 0.509036
H -0.424071 -2.113400 1.483369
