32

Ir -0.266025 -0.153015 -0.267239
H -0.353881 -0.071320 -1.986427
H -0.363421 -1.067686 -1.785962
N -2.392409 -0.225420 -0.173710
C -4.628957 -0.872950 0.261621
O -4.535784 0.412033 -0.437604
C -3.235550 0.635493 -0.638465
C -3.161163 -1.277639 0.524134
H -2.881562 -2.270694 0.123633
H -2.873828 -1.277651 1.594285
H -5.171888 -1.572897 -0.405009
H -5.227078 -0.712038 1.179336
H -2.958467 1.547556 -1.186689
P 1.975827 -0.155653 -0.144273
C 5.095632 -0.167994 0.041667
C 4.396992 -1.357302 0.323147
C 3.003530 -1.485779 0.279352
C 3.058975 1.164486 -0.438962
C 4.449098 1.027643 -0.317768
H 6.194055 -0.173712 0.107621
H 4.981511 -2.250009 0.603055
H 2.504609 -2.435247 0.529684
H 2.617292 2.129663 -0.731279
H 5.071868 1.915265 -0.521130
C -0.320885 1.608560 0.492897
N -0.380976 2.673344 1.070832
C -0.438757 4.081034 0.831851
H 0.449510 4.577400 1.275518
H -1.330836 4.517684 1.327203
H -0.476816 4.328722 -0.253139
C -0.230053 -2.017816 0.634211
N -0.223968 -3.075175 1.161383
