39

Ir 0.064043 -0.459554 0.151354
H 0.212450 -1.187346 1.692411
H 0.045888 -0.291696 1.981540
P -2.247084 -0.960301 0.094019
C -3.097713 -0.238382 -1.366505
C -3.237178 -0.338828 1.513709
C -2.668872 -2.751924 0.001855
H -3.052418 0.867558 -1.293180
H -4.158800 -0.557763 -1.406159
H -2.570169 -0.565466 -2.283311
H -3.199300 0.769831 1.513848
H -2.803855 -0.716364 2.460069
H -4.293019 -0.666775 1.429230
H -2.170251 -3.182874 -0.888378
H -3.763859 -2.911481 -0.070400
H -2.275882 -3.264158 0.901684
C 2.035053 0.159541 0.071030
C 4.269549 0.582072 0.653542
C 3.928859 1.357065 -0.627034
H 4.394377 1.254630 1.534225
H 4.458356 0.957551 -1.523544
C 1.766208 1.754468 -1.845718
H 2.217833 1.466960 -2.821378
H 0.712262 1.430080 -1.814899
H 1.798272 2.859454 -1.747509
C 3.026464 -1.205885 1.919618
H 2.830986 -0.708071 2.897273
H 2.219980 -1.936961 1.726063
H 3.992180 -1.747227 1.991211
N 3.084196 -0.264016 0.827223
N 2.486674 1.130706 -0.756658
H 4.157515 2.440461 -0.557162
H 5.190132 -0.031220 0.564742
C 0.315216 -1.542052 -1.338598
N 0.436150 -2.184586 -2.384361
H 0.704532 -3.177133 -2.382938
N -0.566484 1.616724 0.313417
C -1.465338 2.411744 0.273261
S -2.699342 3.466840 0.218981
