51

Ir 0.076259 -0.237568 -0.200140
H -0.039472 -1.304228 -1.680151
H 0.009868 -1.960006 -1.102863
P -2.279734 -0.134918 -0.070140
C -2.905526 1.270239 0.975183
C -3.156987 -1.599096 0.660152
C -2.849903 -2.932646 -0.022059
C -3.199528 0.118775 -1.670341
C -2.687375 1.279551 -2.524636
C -2.286501 1.328462 2.373173
H -2.662865 2.193468 0.407426
H -4.014442 1.195742 1.017456
H -2.817811 -1.639033 1.715721
H -4.245240 -1.369115 0.653221
H -3.097632 -0.839283 -2.223910
H -4.278961 0.232931 -1.425993
H -1.771999 -3.169225 0.076303
H -3.421017 -3.753650 0.457871
H -3.115809 -2.931297 -1.099514
H -2.784919 2.254588 -2.005712
H -1.612499 1.148159 -2.759532
H -3.253368 1.348375 -3.476215
H -2.517678 0.423029 2.969093
H -1.182207 1.390860 2.302127
H -2.659208 2.210519 2.933286
C 2.135269 -0.245392 -0.123670
C 4.316934 0.079351 0.680193
C 4.387194 -0.594346 -0.695629
H 4.668493 1.138443 0.652120
H 4.705002 -1.661567 -0.626375
C 2.636130 -0.928821 -2.478856
H 2.560051 -2.036982 -2.566691
H 1.658574 -0.484090 -2.744455
H 3.402469 -0.572781 -3.197740
C 2.399755 0.560061 2.231600
H 2.514114 1.668267 2.271588
H 1.335330 0.286147 2.347648
H 2.976334 0.115133 3.068874
N 2.883319 0.031703 0.975620
N 2.996537 -0.504382 -1.147416
H 5.072842 -0.082486 -1.402174
H 4.904354 -0.449823 1.458496
C 0.131998 1.621489 -0.476817
N 0.166797 2.848179 -0.537342
C 0.232603 3.867845 0.477294
H 0.334555 3.450062 1.505393
H -0.682601 4.497886 0.449031
H 1.090674 4.546951 0.286703
C 0.026435 -1.515000 1.431569
C -0.019353 -2.201527 2.464437
H -0.044314 -2.812622 3.356269
