47

Ir 0.434159 -0.082645 -0.345829
H 0.422445 -0.237754 -2.083027
H 0.291489 -1.136690 -1.934607
P -1.808151 0.293765 -0.242567
C -2.387266 1.089445 1.331799
C -2.889610 -1.213136 -0.359966
C -2.586709 -2.146475 -1.533196
C -2.513858 1.388979 -1.568729
C -1.815949 2.737752 -1.745666
C -1.861741 0.416809 2.602550
H -2.049045 2.146056 1.279520
H -3.498849 1.102610 1.301072
H -2.780427 -1.761041 0.598834
H -3.934323 -0.833085 -0.398076
H -2.447874 0.792307 -2.503752
H -3.596475 1.512840 -1.344761
H -1.563889 -2.561759 -1.440557
H -3.300157 -2.995065 -1.541657
H -2.666314 -1.634699 -2.514573
H -1.870398 3.359394 -0.829220
H -0.742251 2.598739 -1.979291
H -2.285028 3.314017 -2.568917
H -2.166901 -0.646200 2.680470
H -0.753307 0.434835 2.618493
H -2.234975 0.943493 3.504270
N 2.661916 -0.536681 -0.290898
C 3.440748 0.519835 -0.974278
C 3.058814 -0.618913 1.135818
C 2.919861 -1.845603 -0.938729
H 2.884916 0.358080 1.622416
H 4.135969 -0.891453 1.224883
H 2.430863 -1.381463 1.632528
H 2.667502 -1.779901 -2.013308
H 2.272275 -2.606047 -0.463899
H 3.992763 -2.125139 -0.832559
H 3.246798 1.496702 -0.494935
H 3.124127 0.585157 -2.031653
H 4.531248 0.292840 -0.929217
C 0.726731 1.635134 0.286848
N 0.933731 2.788510 0.655842
C 1.023796 3.421339 1.945030
H 0.247150 4.210402 2.037246
H 2.005190 3.928734 2.057018
H 0.897534 2.706323 2.789164
N 0.229723 -2.049515 0.573283
C -0.509961 -2.599976 1.360755
O -1.246848 -3.170294 2.125554
