61

Ir -1.059069 -0.175985 0.262780
H -0.919984 -1.067220 1.748744
H -0.974231 -1.786498 1.177163
P 1.299137 -0.093971 0.080049
C 1.571659 1.787116 2.142421
C 2.111664 1.343477 0.917036
C 1.907396 0.034089 -1.658294
C 1.130505 0.758327 -2.585055
C 1.583413 0.931594 -3.899995
C 2.806520 0.371158 -4.305704
C 3.575997 -0.363890 -3.390283
C 3.129910 -0.533078 -2.069091
C 2.210826 -1.553453 0.752910
C 1.809151 -2.835292 0.313148
C 2.465548 -3.974797 0.799628
C 3.513992 -3.851628 1.728160
C 3.909218 -2.579342 2.168949
C 3.262960 -1.430370 1.682238
C 3.243559 1.994788 0.385559
C 3.828821 3.069304 1.074795
C 3.293174 3.499288 2.299501
C 2.164253 2.854734 2.832276
H 0.666855 1.296829 2.535194
H 0.159851 1.165998 -2.262051
H 0.969096 1.495183 -4.619234
H 3.155924 0.499336 -5.341980
H 4.529865 -0.814388 -3.705719
H 3.732330 -1.116793 -1.356088
H 0.979861 -2.922942 -0.412088
H 2.150882 -4.970679 0.450680
H 4.023265 -4.750347 2.109731
H 4.728444 -2.475371 2.897373
H 3.579855 -0.435378 2.029295
H 3.667595 1.664662 -0.574697
H 4.709598 3.574458 0.648795
H 3.752784 4.343229 2.837106
H 1.732812 3.193683 3.786767
C -3.107291 -0.240159 0.233360
C -5.341085 -0.622851 0.831056
C -5.295014 0.005451 -0.567125
H -5.620550 -1.702569 0.797466
H -5.659397 1.060456 -0.567258
C -3.371403 0.413588 -2.161390
H -3.226977 1.517524 -2.183247
H -2.414700 -0.102612 -2.380485
H -4.108845 0.135756 -2.940681
C -3.569754 -0.860920 2.612016
H -3.454641 -1.964459 2.714393
H -2.607174 -0.379188 2.866431
H -4.343216 -0.520707 3.330389
N -3.952696 -0.470220 1.276062
N -3.862752 -0.036416 -0.873953
H -5.883628 -0.557441 -1.319721
H -6.042734 -0.111007 1.521179
C -1.141978 1.685435 0.254858
N -1.169348 2.901585 0.365567
C -1.089525 4.031958 -0.511960
H -0.131728 4.570124 -0.346210
H -1.906340 4.751611 -0.293784
H -1.145975 3.750194 -1.588334
Cl -0.985833 -1.926637 -1.625987
