39

Ir -0.152376 0.060853 -0.263144
H -0.305651 0.213022 -1.961040
H -0.161334 -0.734337 -1.919512
N -2.288262 -0.259580 -0.188678
C -2.795745 -1.489021 0.071238
C -4.182265 -1.692841 0.104916
N -5.074549 -0.711726 -0.108725
C -4.555780 0.500707 -0.357869
C -3.175966 0.740696 -0.401967
H -2.039981 -2.274638 0.253949
H -4.578301 -2.701252 0.316330
H -5.261659 1.330929 -0.535511
H -2.756455 1.735506 -0.610645
C 1.842989 0.213446 -0.228291
C 4.081440 0.176019 -0.939268
C 4.040172 0.032873 0.589485
H 4.390687 -0.769895 -1.441657
H 4.478064 0.912166 1.117131
C 2.160590 -0.309651 2.215265
H 2.575735 0.458099 2.904642
H 1.057847 -0.268738 2.244166
H 2.493050 -1.317165 2.541628
C 2.315424 0.747321 -2.635172
H 2.202884 -0.188120 -3.230017
H 1.357549 1.298847 -2.659888
H 3.097721 1.372214 -3.112301
N 2.687875 0.489790 -1.264816
N 2.606064 -0.056097 0.861555
H 4.562368 -0.875876 0.953530
H 4.762772 0.980805 -1.286087
C -0.291472 1.621001 0.759735
N -0.367644 2.602595 1.485112
C -0.549492 4.014608 1.303099
H -1.454498 4.357632 1.847743
H -0.650243 4.303766 0.232148
H 0.310227 4.569380 1.734914
N 0.062058 -2.042469 0.350086
C 0.984403 -2.765609 0.665971
O 1.878452 -3.497863 1.005999
