38

Ir -0.021769 0.344815 -0.343928
H -0.016746 -0.115399 -2.016178
H 0.081468 -0.955298 -1.653869
C -2.097139 0.212229 -0.270683
C -4.267769 0.475336 0.396827
C -4.238800 -0.548334 -0.508916
H -5.099084 0.913667 0.956365
H -5.038883 -1.187820 -0.892707
C -2.468308 -1.759015 -1.790064
H -2.028499 -1.341929 -2.716665
H -1.710204 -2.371529 -1.258980
H -3.337394 -2.388557 -2.054714
C -2.578297 1.968485 1.470467
H -1.687724 1.642721 2.038518
H -2.332989 2.912694 0.947631
H -3.418110 2.144560 2.167799
N -2.961799 0.923659 0.532674
N -2.918115 -0.693916 -0.905955
C 2.039540 0.195529 -0.145905
C 4.067971 -0.264454 0.935809
C 4.322478 -0.186754 -0.576174
H 4.758354 0.368339 1.531516
H 4.820983 -1.092603 -0.980151
C 2.773200 0.062061 -2.539684
H 2.780374 -0.934229 -3.034944
H 1.807573 0.558837 -2.743452
H 3.586236 0.676099 -2.984790
C 2.075889 0.301442 2.355394
H 2.723129 0.911401 3.020229
H 1.085677 0.780527 2.249991
H 1.915171 -0.705597 2.796826
N 2.686119 0.206975 1.046993
N 2.966005 -0.041444 -1.112870
H 4.942088 0.695113 -0.863425
H 4.140419 -1.306912 1.323559
C 0.074465 2.149218 0.010662
O 0.203008 3.311535 0.169078
Br -0.129844 -2.018530 1.038428
