31

Ir -0.198085 -0.094565 -0.188595
H -0.284050 -0.357897 -1.918323
H -0.259981 0.607240 -1.870842
As 2.182401 0.018394 -0.087297
C 2.877752 0.427970 1.688622
C 2.968183 1.408206 -1.209246
C 3.171439 -1.595569 -0.586735
H 2.383482 1.361368 2.018315
H 3.978764 0.545637 1.668007
H 2.591137 -0.393404 2.372222
H 2.492647 2.363192 -0.915307
H 2.725511 1.191887 -2.266940
H 4.065816 1.454315 -1.070278
H 2.835448 -2.423788 0.066308
H 4.262745 -1.442550 -0.475257
H 2.928650 -1.850887 -1.635664
N -2.321529 0.055642 -0.107340
C -4.641345 -0.416118 -0.207251
O -4.358389 0.961784 0.188287
C -3.028037 1.089892 0.211555
C -3.245281 -1.048620 -0.420033
H -3.066163 -1.395551 -1.457824
H -3.036065 -1.903134 0.255302
H -5.264365 -0.382236 -1.123004
H -5.226816 -0.886402 0.607705
H -2.592228 2.059613 0.501836
C -0.194759 -1.743749 0.721988
O -0.158724 -2.747788 1.337313
C -0.077889 1.861585 0.498040
C 0.006050 3.017205 0.944625
H 0.069677 4.020820 1.343521
