34

Ir 0.133306 -0.042743 -0.159995
H 0.157175 -0.380817 -1.825858
H 0.183016 -1.309113 -1.486047
P -2.119887 -0.106611 -0.035181
C -2.727310 -0.813039 1.551464
C -2.899666 -1.194813 -1.300114
C -3.036758 1.479412 -0.202785
H -2.186381 -1.770047 1.690892
H -3.824791 -0.968995 1.539702
H -2.454271 -0.125984 2.376059
H -2.472568 -2.210386 -1.188833
H -2.645135 -0.814896 -2.308580
H -4.001561 -1.234101 -1.180872
H -2.657511 2.190080 0.556749
H -4.127317 1.328387 -0.071958
H -2.834204 1.905138 -1.204715
N 2.400351 -0.170552 -0.057532
C 2.784292 0.103638 1.347342
C 2.802654 -1.556228 -0.401922
C 3.049550 0.800035 -0.961557
H 2.190696 -2.238770 0.223277
H 3.891983 -1.700449 -0.218478
H 2.583433 -1.746353 -1.469113
H 2.738482 1.824916 -0.687120
H 2.730550 0.604696 -2.002140
H 4.159785 0.719534 -0.894423
H 2.264091 -0.631309 1.988883
H 2.464420 1.123731 1.628601
H 3.886758 0.002925 1.478392
C 0.173583 1.770699 0.239234
N 0.233217 2.946744 0.631789
H 0.272727 3.708838 -0.060712
O 0.224703 -1.853134 1.044437
H 0.103661 -1.533143 1.958367
