30

Ir -0.019908 -0.181673 -0.273780
H -0.017608 -0.561928 -1.916837
H 0.006072 -1.501493 -1.549860
N -2.076812 -0.348942 -0.132931
C -4.303771 -0.125432 -0.289453
C -3.092365 0.347948 -0.757528
N -3.988329 -1.114085 0.626026
C -2.635798 -1.228271 0.703919
H -4.653418 -1.669811 1.163225
H -5.335122 0.151702 -0.526573
H -2.875723 1.137553 -1.483460
H -2.001113 -1.892887 1.321093
N 2.017112 -0.177853 -0.146820
C 4.108124 -0.818863 0.711873
O 4.227359 -0.118953 -0.572020
C 2.966276 0.099406 -0.979173
C 2.649901 -0.593209 1.128412
H 2.518929 0.237474 1.854460
H 2.076534 -1.469855 1.506887
H 4.860146 -0.393056 1.402262
H 4.348283 -1.888081 0.525045
H 2.820290 0.504675 -1.990190
C -0.111656 1.668316 -0.044148
N -0.182826 2.895865 -0.009398
C -0.247932 3.831213 1.082070
H -1.184896 4.426029 1.022758
H 0.590597 4.557613 1.016943
H -0.209590 3.340262 2.081768
O 0.034213 -1.902009 1.122075
H 0.116267 -2.693220 0.559143
