33

Ir -0.451069 0.095585 -0.185532
H -0.444965 0.157988 -1.888730
H -0.509143 -0.832210 -1.715038
N -2.697104 0.275505 -0.297699
C -3.256982 0.275254 1.081487
C -3.062949 1.541060 -0.983786
C -3.275259 -0.869557 -1.050227
H -2.644379 2.402352 -0.433151
H -4.171115 1.634845 -1.037038
H -2.644840 1.543715 -2.006952
H -2.981588 -1.806622 -0.544666
H -2.892761 -0.861213 -2.087194
H -4.384571 -0.784843 -1.071407
H -2.875212 1.153686 1.631662
H -2.933152 -0.656797 1.580880
H -4.368421 0.321697 1.039092
P 1.801242 0.049533 -0.085878
C 4.921858 0.121467 -0.131355
C 4.272131 -1.113234 -0.308720
C 2.881423 -1.284878 -0.311852
C 2.828835 1.433678 0.094156
C 4.225570 1.328244 0.062792
H 6.022022 0.144543 -0.144314
H 4.894602 -2.012659 -0.452187
H 2.418125 -2.276065 -0.418006
H 2.344395 2.411014 0.242826
H 4.812104 2.253292 0.193307
C -0.400933 1.732050 0.733332
N -0.388056 2.846172 1.258347
H -0.405550 2.971759 2.280219
N -0.612217 -1.987845 0.630894
O 0.388177 -2.712749 0.663330
O -1.693479 -2.385855 1.105306
