31

Ir 0.441038 -0.313234 -0.171069
H 0.574638 -0.851043 -1.800053
H 0.270845 0.039628 -1.983157
N 2.483111 0.440454 -0.167861
C 2.743368 1.092686 1.148366
C 3.475048 -0.645572 -0.385860
C 2.645614 1.462661 -1.241066
H 3.392672 -1.394840 0.421616
H 4.505235 -0.225018 -0.395820
H 3.268993 -1.144159 -1.350158
H 1.879043 2.246231 -1.103275
H 2.502140 0.985021 -2.227175
H 3.664785 1.903841 -1.190160
H 2.655815 0.341700 1.953645
H 1.984300 1.879457 1.308416
H 3.764682 1.533713 1.156879
N -1.542972 -0.903818 -0.174464
C -3.484908 -2.257519 -0.299415
O -3.784679 -0.845180 -0.086293
C -2.621388 -0.197694 -0.019355
C -1.944500 -2.310090 -0.392340
H -1.568079 -2.647999 -1.378913
H -1.474412 -2.950173 0.380777
H -4.004440 -2.576256 -1.224306
H -3.900490 -2.821730 0.559070
H -2.668728 0.891993 0.157866
C 0.844061 -1.607572 1.088112
O 1.092900 -2.467169 1.856759
N -0.167959 1.763154 0.047954
C -1.048384 2.565393 0.218877
S -2.270712 3.605946 0.442501
