39

Ir 0.158200 0.110233 -0.197328
H 0.164587 0.224984 -1.895474
H 0.224852 -0.739314 -1.852142
P -2.108874 -0.163944 0.011302
C -2.628401 -0.091579 1.788630
C -2.631128 -1.853210 -0.538012
C -2.656386 -2.074254 -2.050519
C -3.249818 1.001182 -0.868860
C -3.149593 2.464822 -0.434438
C -2.028774 -1.229539 2.627766
H -2.274142 0.896137 2.150494
H -3.740431 -0.078534 1.830845
H -1.869351 -2.502037 -0.054816
H -3.622616 -2.058949 -0.078734
H -3.005440 0.897296 -1.947023
H -4.281407 0.607015 -0.731725
H -1.673977 -1.835164 -2.506177
H -2.876662 -3.136672 -2.279262
H -3.429155 -1.460709 -2.557659
H -3.400910 2.598400 0.637162
H -2.128747 2.864970 -0.588245
H -3.852493 3.091697 -1.019785
H -2.595445 -2.171470 2.482931
H -0.981678 -1.438432 2.322621
H -2.063676 -0.980667 3.707178
N 2.308839 -0.003201 -0.134870
C 5.086702 -0.304836 0.017599
C 4.227369 -1.327815 0.446692
C 2.843137 -1.148104 0.358358
C 3.129219 0.990961 -0.547227
C 4.522178 0.875925 -0.487287
H 6.179350 -0.424088 0.077118
H 4.620433 -2.270982 0.853494
H 2.080459 -1.892574 0.666750
H 2.634563 1.896261 -0.929166
H 5.148821 1.710377 -0.833716
C 0.113850 1.784320 0.574245
O 0.098001 2.878460 1.014990
F 0.197644 -1.928764 0.563612
