44

Ir 0.278525 0.004588 -0.353904
H 0.293695 -0.150365 -2.071886
H 0.321776 -1.075674 -1.885089
P -2.007330 0.039369 -0.260745
C -2.713944 0.779593 1.288249
C -2.848686 -1.614472 -0.349900
C -2.384794 -2.518930 -1.492655
C -2.857343 0.989002 -1.614333
C -2.356495 2.418361 -1.824752
C -2.111014 0.227888 2.582524
H -2.535717 1.873060 1.208021
H -3.814834 0.627108 1.248193
H -2.674866 -2.115388 0.625055
H -3.937851 -1.397916 -0.413177
H -2.705904 0.385618 -2.534976
H -3.946990 0.964234 -1.391977
H -1.312734 -2.770157 -1.370925
H -2.961120 -3.466094 -1.489754
H -2.521208 -2.048903 -2.488600
H -2.491699 3.045567 -0.920442
H -1.275493 2.426165 -2.066107
H -2.906788 2.905866 -2.655080
H -2.255680 -0.866009 2.688877
H -1.018024 0.411025 2.609870
H -2.570915 0.718398 3.464490
N 2.411922 -0.111606 -0.321809
C 4.582266 -1.007876 -0.072082
O 4.584138 0.456258 -0.137672
C 3.298425 0.820429 -0.210523
C 3.129506 -1.400464 -0.400571
H 2.656515 -2.112091 0.304713
H 2.999914 -1.811136 -1.424645
H 4.891727 -1.290708 0.955780
H 5.335030 -1.380601 -0.792267
H 3.074217 1.896630 -0.170836
C 0.315116 1.748818 0.291413
N 0.364093 2.922842 0.645790
C 0.343990 3.582490 1.924995
H -0.556260 4.228653 2.004746
H 1.223924 4.251784 2.026862
H 0.340637 2.869494 2.779740
N 0.342038 -1.948641 0.641446
C -0.325897 -2.559043 1.447283
O -0.989258 -3.193172 2.230838
