31

Ir 0.060681 0.037602 0.223424
H -0.002369 0.081375 1.966314
H -0.013332 -0.870989 1.792584
P 2.336525 -0.008111 0.102246
C 2.945738 -0.217479 -1.616177
C 3.104274 -1.397836 1.025346
C 3.214096 1.489546 0.711358
H 2.506748 -1.152424 -2.015822
H 4.052877 -0.261687 -1.653923
H 2.575858 0.630565 -2.224457
H 2.671975 -2.340408 0.636289
H 2.847809 -1.308451 2.098831
H 4.205950 -1.400854 0.902072
H 2.857919 2.362224 0.130317
H 4.312786 1.388787 0.600598
H 2.956744 1.651314 1.775955
N -2.087747 -0.050055 0.142744
C -4.393783 0.492614 0.217188
O -4.144414 -0.862945 -0.267417
C -2.819876 -1.035907 -0.261280
C -2.982632 1.068551 0.485031
H -2.816043 1.367048 1.539717
H -2.729533 1.940297 -0.152205
H -5.026755 0.414181 1.123568
H -4.958092 1.031937 -0.569130
H -2.418450 -2.002686 -0.606331
C 0.062041 1.688498 -0.683378
N 0.087416 2.658826 -1.448884
H 0.060065 3.617491 -1.072995
C 0.112314 -1.872859 -0.569386
N 0.128592 -2.938575 -1.082666
