35

Ir -0.154604 -0.123136 -0.205856
H -0.000079 -0.748114 -1.965153
H 0.065077 -1.555013 -1.717892
P -2.421075 -0.159210 -0.183311
C -3.184165 -0.217673 1.491873
C -3.178269 -1.599775 -1.044109
C -3.256530 1.283926 -0.971906
H -2.803889 -1.128271 1.993519
H -4.291319 -0.242880 1.433185
H -2.855097 0.670617 2.064716
H -2.802669 -2.514764 -0.545521
H -2.848471 -1.605541 -2.101328
H -4.285233 -1.555699 -0.998076
H -2.917829 2.214696 -0.477588
H -4.359830 1.198314 -0.901490
H -2.952480 1.334993 -2.035365
N 2.038963 -0.142672 -0.116508
C 4.852636 -0.172146 -0.107613
C 4.117809 -1.227087 0.451914
C 2.719271 -1.179260 0.430156
C 2.747774 0.880295 -0.655626
C 4.146635 0.901173 -0.670221
H 5.953429 -0.184905 -0.106078
H 4.616800 -2.094711 0.908287
H 2.076611 -1.981152 0.845013
H 2.154609 1.702845 -1.080918
H 4.667547 1.757200 -1.123292
C -0.155158 1.714626 0.006966
N -0.138647 2.929063 0.185359
C -0.206600 3.782051 1.340578
H -1.064925 4.481929 1.252104
H 0.707875 4.408683 1.410662
H -0.312707 3.210911 2.290477
S -0.316881 -2.381423 0.945133
H -0.379326 -1.898310 2.219159
