53

Ir 1.159527 -0.038351 0.148845
H 1.179306 -0.332751 1.863644
H 1.195711 0.646804 1.809320
P -1.127601 -0.012974 0.056141
C -1.347032 -2.684471 0.908086
C -1.924913 -1.681898 0.101161
C -1.844712 0.780030 -1.444369
C -1.161413 0.660527 -2.671337
C -1.714273 1.213863 -3.835020
C -2.941073 1.895777 -3.782164
C -3.619249 2.023448 -2.559587
C -3.075241 1.467141 -1.391207
C -1.914288 0.891755 1.459121
C -1.563968 2.246313 1.659172
C -2.141469 2.965811 2.714655
C -3.059716 2.346401 3.580177
C -3.405324 1.000836 3.384102
C -2.838086 0.272869 2.324743
C -3.101395 -1.966889 -0.620650
C -3.691845 -3.237972 -0.532511
C -3.118539 -4.229659 0.278946
C -1.945879 -3.949514 1.000618
H -0.411440 -2.463801 1.446082
H -0.189701 0.145311 -2.704901
H -1.173086 1.122509 -4.789044
H -3.365853 2.338621 -4.696290
H -4.575694 2.566367 -2.510599
H -3.605138 1.577658 -0.432812
H -0.837409 2.733987 0.989245
H -1.866256 4.021335 2.862650
H -3.506355 2.915246 4.410364
H -4.123787 0.509267 4.058112
H -3.118094 -0.780248 2.173699
H -3.555081 -1.196225 -1.261477
H -4.605952 -3.453740 -1.106800
H -3.583502 -5.225469 0.345225
H -1.489485 -4.724496 1.635824
N 3.340226 -0.024622 0.179466
C 6.147452 -0.069377 0.256514
C 5.402393 -1.205208 0.604589
C 4.006046 -1.144181 0.552684
C 4.056612 1.074238 -0.161538
C 5.455954 1.085952 -0.132666
H 7.247516 -0.085822 0.286932
H 5.890253 -2.140063 0.915979
H 3.374567 -2.005541 0.813321
H 3.466549 1.955569 -0.459094
H 5.987478 2.004936 -0.418772
C 1.194132 -1.511797 -1.032000
N 1.204925 -2.331900 -1.951123
H 1.199335 -3.344353 -1.767694
C 1.150931 1.958730 -0.381547
N 1.178560 3.091696 -0.720624
