35

Ir 0.072764 0.067061 -0.292242
H 0.034300 -0.615241 -1.910794
H -0.040894 -1.409676 -1.463821
As -2.365488 -0.087799 0.030579
C -2.909046 0.220244 1.882846
C -3.165821 -1.833560 -0.343702
C -3.537499 1.141724 -0.956703
H -2.322432 -0.489901 2.496929
H -3.995900 0.054840 2.016649
H -2.641004 1.257204 2.160864
H -2.621480 -2.574235 0.273140
H -3.025934 -2.072274 -1.415379
H -4.244083 -1.837492 -0.091283
H -3.201524 2.178165 -0.760213
H -4.595287 1.022199 -0.651040
H -3.434649 0.939512 -2.040163
C 2.114640 0.038849 -0.114956
C 4.291683 -0.646439 -0.166374
C 4.256444 0.551836 0.491363
H 5.128153 -1.312740 -0.396313
H 5.056903 1.144914 0.942905
C 2.480018 2.167789 1.185151
H 2.279732 2.978618 0.457988
H 1.542581 1.956410 1.732417
H 3.264043 2.495946 1.892873
C 2.596587 -2.189085 -1.172616
H 1.876949 -2.717952 -0.513730
H 2.121713 -1.990098 -2.152765
H 3.499909 -2.807857 -1.323439
N 2.986532 -0.944212 -0.528714
N 2.928082 0.953628 0.520003
C -0.081272 1.907188 -0.424842
O -0.267095 3.068405 -0.527156
S 0.104463 -1.877852 1.362141
H 0.565814 -1.185522 2.441621
