28

Ir 0.043827 0.212485 -0.186053
H 0.130992 0.297200 -1.922270
H 0.020812 -0.648261 -1.807481
N -2.003974 0.325407 -0.231165
C -4.225374 -0.376928 -0.589313
O -4.117268 0.627749 0.471886
C -2.815065 0.863664 0.622311
C -2.820156 -0.420076 -1.213770
H -2.746843 0.090908 -2.197624
H -2.426073 -1.449316 -1.292546
H -5.030303 -0.057618 -1.277447
H -4.500106 -1.334174 -0.102545
H -2.510045 1.508207 1.459067
N 2.106503 -0.022106 -0.140373
C 4.431820 0.372787 -0.334132
O 4.116905 -0.987889 0.097526
C 2.789068 -1.077432 0.176831
C 3.053343 1.047062 -0.516729
H 2.849865 1.372121 -1.556910
H 2.897889 1.925620 0.141692
H 5.025048 0.301119 -1.267073
H 5.056685 0.838620 0.453539
H 2.290335 -2.010680 0.515503
C 0.177489 1.822992 0.732180
O 0.224180 2.835975 1.332413
N -0.360831 -1.891997 0.584387
O 0.550039 -2.665973 0.939253
O -1.545300 -2.243188 0.712171
