48

Ir 0.084939 0.118422 -0.147530
H -0.024102 1.024111 -1.772420
H 0.036588 0.260649 -2.150417
P -2.273360 0.037692 -0.026250
C -2.901216 -0.353515 1.679343
C -3.140475 -1.226062 -1.073971
C -2.834749 -1.136635 -2.569707
C -3.196735 1.599704 -0.447920
C -2.676211 2.859589 0.245746
C -2.252703 -1.589532 2.306610
H -2.681527 0.547387 2.290435
H -4.007680 -0.449574 1.622844
H -2.796212 -2.206631 -0.685532
H -4.229415 -1.133603 -0.866890
H -3.111142 1.705163 -1.550783
H -4.273043 1.423606 -0.227892
H -1.756397 -1.317132 -2.748856
H -3.402614 -1.909536 -3.127126
H -3.107011 -0.151551 -3.002208
H -2.746758 2.789515 1.349925
H -1.607426 3.025677 0.005476
H -3.254381 3.751171 -0.072599
H -2.433613 -2.504779 1.708133
H -1.153433 -1.458642 2.363883
H -2.646781 -1.766614 3.328354
C 2.145136 0.057232 -0.112184
C 4.329303 -0.554137 0.492501
C 4.395414 0.486206 -0.633143
H 4.675960 -0.143632 1.470747
H 4.727745 0.040571 -1.600283
C 2.630443 2.008560 -1.600627
H 2.578248 1.695657 -2.668691
H 1.639496 2.392964 -1.293340
H 3.378005 2.823552 -1.511280
C 2.415319 -1.832345 1.504171
H 2.540968 -1.466959 2.549638
H 1.348430 -2.033987 1.297437
H 2.983869 -2.778456 1.390536
N 2.897312 -0.856715 0.552399
N 2.999701 0.922066 -0.725289
H 5.067724 1.339139 -0.405340
H 4.923109 -1.467220 0.281300
C 0.116672 1.126875 1.424334
N 0.127031 1.706922 2.517248
H 0.162168 1.167067 3.393858
C 0.049701 -1.876174 -0.722046
C 0.014081 -3.092723 -0.965363
H -0.002907 -4.149945 -1.192319
