30

Ir 0.097490 0.127599 -0.268176
H 0.116645 -0.097063 -2.046377
H 0.113549 -0.953473 -1.814745
N -1.960221 0.122891 -0.257533
C -2.683852 0.837240 -1.158083
C -4.083224 0.815212 -1.134660
N -4.786958 0.117029 -0.229006
C -4.059578 -0.576433 0.660107
C -2.657499 -0.591018 0.664554
H -2.112669 1.428878 -1.886923
H -4.648593 1.397673 -1.882722
H -4.605908 -1.160419 1.420631
H -2.061375 -1.189769 1.370533
N 2.163739 0.102557 -0.257364
C 4.439545 0.754264 -0.393394
O 4.270815 -0.657916 -0.061894
C 2.957895 -0.889145 0.005117
C 2.997842 1.280689 -0.572958
H 2.771406 1.623245 -1.602751
H 2.738123 2.106226 0.119195
H 5.060038 0.814171 -1.309147
H 4.987850 1.231808 0.443309
H 2.596428 -1.896796 0.276910
C 0.084595 1.708329 0.709129
N 0.054721 2.689321 1.437989
C 0.008889 4.113885 1.275800
H -0.915215 4.519925 1.738466
H 0.035104 4.429512 0.208048
H 0.862739 4.586999 1.805283
Br 0.087486 -2.495526 0.546077
