56

Ir 1.126567 0.235930 -0.048498
H 0.981318 1.585900 -1.234868
H 1.037959 0.897369 -1.812267
P -1.234043 0.030183 -0.024969
C -1.605506 2.567947 1.120542
C -2.133909 1.264147 1.019125
C -1.853142 -1.596468 0.582540
C -1.102210 -2.278574 1.560169
C -1.566822 -3.494271 2.081428
C -2.775122 -4.043791 1.622127
C -3.519844 -3.373750 0.638371
C -3.062917 -2.152503 0.118191
C -2.029044 0.206395 -1.683554
C -1.640476 -0.687968 -2.707117
C -2.208906 -0.575305 -3.983768
C -3.156398 0.426828 -4.256034
C -3.539455 1.317551 -3.242011
C -2.981306 1.208394 -1.957114
C -3.338261 0.953401 1.683454
C -4.004311 1.936107 2.432477
C -3.479304 3.235437 2.520972
C -2.279128 3.549423 1.862791
H -0.649575 2.798768 0.624449
H -0.140423 -1.853485 1.886767
H -0.972813 -4.024154 2.841740
H -3.132475 -5.004313 2.024408
H -4.461147 -3.806871 0.266381
H -3.643985 -1.635709 -0.661038
H -0.890831 -1.469686 -2.503122
H -1.903757 -1.278211 -4.774211
H -3.596698 0.512669 -5.261571
H -4.281433 2.104764 -3.447115
H -3.291214 1.906934 -1.165581
H -3.755040 -0.063006 1.623042
H -4.939636 1.681240 2.954277
H -4.002799 4.003179 3.111443
H -1.856735 4.563371 1.936246
C 3.193328 0.167143 -0.097312
C 5.389486 0.598027 -0.511994
C 5.322160 -0.572801 0.194424
H 6.247773 1.150203 -0.905681
H 6.112452 -1.245152 0.540584
C 3.478703 -1.976153 1.174279
H 2.828351 -1.639420 2.003113
H 2.880386 -2.617594 0.497796
H 4.341196 -2.536614 1.578827
C 3.714519 2.262700 -1.366556
H 3.308555 2.040301 -2.373704
H 2.937797 2.794548 -0.784949
H 4.608961 2.904463 -1.466763
N 4.082668 1.039947 -0.672407
N 3.980000 -0.816566 0.442996
C 1.193156 0.779821 1.743202
O 1.259956 1.017067 2.892764
C 1.161467 -1.603767 -0.990655
N 1.202850 -2.685264 -1.467636
