42

Ir 0.261026 -0.154304 -0.213414
H 0.318504 -0.423038 -2.046274
H 0.360891 -1.263595 -1.852669
P -2.013166 -0.167949 -0.035368
C -2.649227 0.543990 1.556205
C -2.827346 -1.834974 -0.098061
C -2.516683 -2.665304 -1.343777
C -2.953890 0.782366 -1.331060
C -2.544053 2.245973 -1.497157
C -2.034062 -0.089280 2.805915
H -2.404455 1.626224 1.517972
H -3.757708 0.452784 1.543477
H -2.468315 -2.369201 0.805461
H -3.919710 -1.661220 0.019114
H -2.791515 0.227526 -2.279559
H -4.034544 0.687247 -1.084936
H -1.433356 -2.888820 -1.399090
H -3.055978 -3.633390 -1.304416
H -2.818612 -2.155206 -2.281794
H -2.709630 2.831997 -0.569988
H -1.468369 2.323361 -1.752364
H -3.131137 2.728724 -2.304922
H -2.256069 -1.172801 2.879084
H -0.931554 0.018778 2.788690
H -2.424345 0.399311 3.721769
N 2.424360 -0.190112 -0.184116
C 4.586534 0.380416 -0.436528
C 3.283818 0.780043 -0.663141
N 4.490666 -0.848338 0.189651
C 3.176194 -1.165711 0.330320
H 5.269458 -1.428594 0.502435
H 5.546626 0.853837 -0.661817
H 2.901585 1.692246 -1.131343
H 2.779376 -2.078606 0.793885
C 0.273199 1.639510 0.346492
N 0.274969 2.713586 0.938393
C 0.292117 4.087530 0.517547
H 1.142203 4.623411 0.990120
H -0.633512 4.601088 0.855402
H 0.371265 4.205908 -0.587422
C 0.312107 -2.038091 0.625885
N 0.417883 -3.074582 1.188468
