34

Ir -0.099511 -0.128759 -0.173627
H -0.145706 -0.211168 -1.866233
H -0.150567 -1.185431 -1.654595
N -2.218457 -0.197813 -0.063858
C -3.036603 0.854193 -0.303414
C -4.428109 0.703945 -0.242921
N -5.024021 -0.464076 0.045219
C -4.194919 -1.494282 0.287909
C -2.799140 -1.386713 0.240080
H -2.554311 1.812082 -0.545354
H -5.079097 1.573146 -0.442471
H -4.655785 -2.467215 0.532520
H -2.064875 -2.193448 0.462262
As 2.267873 -0.336929 -0.022221
C 3.349931 1.293029 -0.058605
C 3.075398 -1.442305 -1.419400
C 2.848621 -1.240362 1.608901
H 3.194054 1.802710 -1.028522
H 4.423213 1.057412 0.077849
H 2.998009 1.958733 0.752440
H 2.866217 -0.982510 -2.404014
H 2.590864 -2.436307 -1.376157
H 4.168333 -1.541625 -1.269328
H 2.628146 -0.587864 2.475026
H 3.928876 -1.480323 1.573259
H 2.227880 -2.154956 1.668459
C -0.019400 1.659292 0.381828
N 0.059893 2.815485 0.783791
C 0.113182 4.104240 0.149716
H 0.008197 4.046434 -0.957905
H 1.077600 4.605277 0.381480
H -0.688408 4.762774 0.546232
O -0.122662 -2.106421 0.778672
H -0.144472 -1.874621 1.727625
