33

Ir 0.020959 0.080141 -0.165395
H 0.149566 -0.419639 -1.791185
H 0.189824 -1.279992 -1.375365
C -1.987271 0.045840 -0.174582
C -4.196936 0.475962 0.219081
C -4.127676 -0.684137 -0.498875
H -5.057029 1.024997 0.612619
H -4.915428 -1.354827 -0.853555
C -2.306542 -2.155787 -1.368975
H -1.832568 -1.930652 -2.344477
H -1.571901 -2.645472 -0.696904
H -3.170783 -2.825177 -1.533079
C -2.567793 2.073402 1.220356
H -1.714554 1.835664 1.881473
H -2.293250 2.936206 0.583834
H -3.450319 2.333439 1.834190
N -2.891565 0.904834 0.416516
N -2.783993 -0.937861 -0.727227
N 2.201765 -0.032639 -0.072660
C 5.002854 -0.250096 -0.042984
C 4.370638 0.787142 -0.743724
C 2.973563 0.863962 -0.734372
C 2.808516 -1.034454 0.609612
C 4.200846 -1.171591 0.645201
H 6.100241 -0.336785 -0.032846
H 4.947516 1.540809 -1.299104
H 2.436910 1.668868 -1.257229
H 2.116059 -1.726152 1.125814
H 4.641924 -2.003068 1.214156
C 0.170296 1.910888 0.061080
N 0.433432 3.119267 -0.013134
H 0.488826 3.695232 0.837926
Cl -0.202315 -1.954491 1.379635
