38

Ir 0.137916 0.370394 0.360976
H 0.309021 0.184667 2.076401
H 0.188353 -0.709099 1.835192
N 2.316613 0.159092 0.315429
C 5.122747 -0.057029 0.372596
C 4.491977 1.176968 0.589452
C 3.095227 1.243972 0.555800
C 2.925627 -1.031848 0.097670
C 4.317853 -1.176688 0.122135
H 6.219939 -0.142376 0.397244
H 5.070323 2.091023 0.787750
H 2.559118 2.189569 0.721606
H 2.246732 -1.878196 -0.110131
H 4.754487 -2.169550 -0.059695
C -1.853985 0.528647 0.385193
C -4.085679 0.620858 1.138312
C -4.069919 0.408334 -0.381120
H -4.668477 -0.156479 1.675848
H -4.709127 1.130480 -0.931596
C -2.261554 0.413510 -2.096380
H -2.770767 1.170377 -2.731611
H -1.166977 0.528463 -2.178911
H -2.519537 -0.606118 -2.457742
C -2.261326 0.671780 2.863023
H -2.204718 -0.315580 3.372684
H -1.271151 1.161189 2.921849
H -2.997507 1.301617 3.404795
N -2.664693 0.551645 1.481265
N -2.658038 0.586627 -0.716752
H -4.395508 -0.619050 -0.666537
H -4.500961 1.614114 1.429466
C 0.268451 1.967581 -0.590545
N 0.397774 3.063298 -1.117570
C 0.379171 3.584537 -2.455256
H 1.344252 4.083350 -2.685157
H -0.411485 4.358399 -2.552605
H 0.200415 2.799379 -3.223812
I -0.378284 -2.361602 -0.606832
