32

Ir -0.000001 0.195520 0.307343
H 0.000001 0.191505 1.997665
H -0.000001 -0.781219 1.869964
As 2.368275 -0.172619 -0.040926
C 2.620374 -0.609567 -1.924496
C 2.957822 -1.813236 0.836253
C 3.750672 1.152186 0.365352
H 1.810157 -1.336951 -2.130147
H 3.618862 -1.048137 -2.116099
H 2.469958 0.301400 -2.533422
H 2.203661 -2.568156 0.540117
H 2.932676 -1.675587 1.933679
H 3.971383 -2.112798 0.505623
H 3.503507 2.090290 -0.167624
H 4.748518 0.789678 0.049866
H 3.748948 1.350883 1.454024
As -2.368278 -0.172612 -0.040925
C -3.750679 1.152189 0.365355
C -2.957815 -1.813235 0.836247
C -2.620376 -0.609555 -1.924496
H -3.748981 1.350859 1.454032
H -4.748518 0.789691 0.049836
H -3.503499 2.090305 -0.167593
H -2.932666 -1.675592 1.933674
H -2.203649 -2.568147 0.540103
H -3.971375 -2.112802 0.505619
H -2.469967 0.301413 -2.533420
H -3.618862 -1.048131 -2.116098
H -1.810155 -1.336935 -2.130148
C 0.000014 1.961568 -0.237895
O 0.000028 3.106748 -0.514706
F -0.000015 -1.781119 -0.631587
