43

Ir 0.270831 0.136657 -0.178097
H 0.262906 0.104167 -2.004848
H 0.229516 -0.761777 -1.943314
P -2.099654 0.031444 -0.062145
C -2.780166 0.547124 1.583555
C -2.922143 -1.601164 -0.381183
C -2.478277 -2.312898 -1.659100
C -2.988143 1.144286 -1.260466
C -2.520109 2.599768 -1.292318
C -2.131792 -0.152142 2.780012
H -2.617490 1.644513 1.642537
H -3.879911 0.383461 1.551989
H -2.685495 -2.226820 0.500620
H -4.015372 -1.396402 -0.383885
H -2.852138 0.673190 -2.257529
H -4.072038 1.071637 -1.020980
H -1.403597 -2.575634 -1.610260
H -3.045157 -3.256839 -1.789450
H -2.642387 -1.700602 -2.569981
H -2.619916 3.094938 -0.305349
H -1.454325 2.668554 -1.586418
H -3.119045 3.184326 -2.019909
H -2.264013 -1.250511 2.744346
H -1.039839 0.037738 2.792785
H -2.566522 0.223843 3.728285
P 2.628406 0.192245 -0.120186
C 3.368780 -0.483265 1.419564
C 3.364303 1.875344 -0.253280
C 3.439373 -0.749259 -1.472816
H 2.994100 0.099933 2.282547
H 4.475805 -0.432151 1.381913
H 3.037274 -1.534398 1.517142
H 3.001719 2.503656 0.583344
H 3.034123 2.341852 -1.201636
H 4.471663 1.827198 -0.228155
H 3.061219 -1.786985 -1.398874
H 4.543154 -0.727672 -1.371505
H 3.143705 -0.314843 -2.447670
C 0.200508 1.833583 0.553148
O 0.133261 2.871719 1.107257
N 0.424609 -1.982131 0.415465
O -0.467424 -2.497706 1.108982
O 1.452979 -2.637222 0.140231
