37

Ir 0.035893 0.227683 -0.152617
H -0.062925 0.628099 -1.907636
H 0.006950 -0.236270 -2.055700
As -2.408725 -0.036922 -0.069307
C -3.038286 -1.053088 1.479599
C -3.212678 -1.027565 -1.553131
C -3.528739 1.575735 0.026686
H -2.513928 -2.027053 1.450088
H -4.135591 -1.198356 1.444298
H -2.753951 -0.508502 2.400081
H -2.680470 -1.997071 -1.605123
H -3.049634 -0.465901 -2.492878
H -4.296384 -1.183724 -1.387389
H -3.194956 2.182475 0.890667
H -4.600363 1.318494 0.137408
H -3.378625 2.168764 -0.895868
C 2.075362 0.087174 -0.035602
C 4.336032 -0.086038 -0.654465
C 4.193448 -0.462486 0.829125
H 4.587273 -0.965451 -1.291476
H 4.690050 0.268450 1.509083
C 2.177695 -0.842137 2.286019
H 2.626165 -0.260604 3.122019
H 1.087700 -0.653222 2.248629
H 2.357767 -1.923922 2.466323
C 2.728734 0.949317 -2.294827
H 2.562402 0.151591 -3.054209
H 1.828648 1.589374 -2.251236
H 3.590692 1.567659 -2.619129
N 2.997034 0.411808 -0.982519
N 2.743928 -0.431806 1.024278
H 4.603260 -1.467849 1.061586
H 5.105960 0.692820 -0.836004
C -0.000581 1.701770 0.957194
O -0.033542 2.618082 1.698353
S -0.000004 -2.330511 -0.221229
H 0.039838 -2.565612 1.122020
