34

Ir 0.076816 0.207379 -0.108569
H 0.144599 1.147474 -1.513677
H 0.104014 0.284482 -1.958843
As -2.359762 -0.051261 -0.107131
C -2.835891 -1.398884 1.220913
C -2.997587 -0.873431 -1.758367
C -3.620767 1.413749 0.229552
H -2.129783 -2.225021 1.009528
H -3.887887 -1.728176 1.117293
H -2.652398 -0.995091 2.234290
H -2.316204 -1.734300 -1.902613
H -2.881639 -0.159882 -2.596100
H -4.051584 -1.202242 -1.674030
H -3.367578 1.880465 1.201072
H -4.664334 1.043155 0.252044
H -3.511916 2.174710 -0.566947
C 2.100296 -0.103531 -0.090301
C 4.114006 -1.106138 0.216048
C 4.348656 0.111377 -0.367357
H 4.804307 -1.895743 0.527572
H 5.282129 0.592533 -0.674053
C 2.898729 2.012930 -1.155277
H 2.543207 1.899690 -2.199982
H 2.130664 2.569302 -0.586704
H 3.850912 2.575162 -1.151518
C 2.065372 -2.340810 1.026094
H 1.064025 -2.455862 0.547672
H 2.672512 -3.254555 0.883883
H 1.953215 -2.137450 2.110696
N 2.742047 -1.219280 0.378090
N 3.108694 0.713131 -0.538798
C 0.147214 1.282800 1.387855
O 0.194001 2.035947 2.293455
F -0.328478 -1.932015 -0.515788
