29

Ir -0.056505 0.159050 -0.397967
H -0.100385 -0.178562 -2.100591
H -0.038798 -1.055516 -1.781495
N -2.123739 -0.016991 -0.339393
C -4.320029 0.416221 -0.554846
C -3.051666 0.927933 -0.743690
N -4.135173 -0.849965 -0.031506
C -2.802113 -1.085518 0.091235
H -4.868963 -1.509375 0.227226
H -5.311359 0.837212 -0.745843
H -2.734480 1.900982 -1.130057
H -2.320692 -1.990346 0.492183
N 1.987908 0.249441 -0.411517
C 4.219043 -0.028839 0.311756
O 4.128562 0.310747 -1.110552
C 2.822278 0.375858 -1.391420
C 2.778801 0.122827 0.833915
H 2.611612 1.035570 1.443762
H 2.402288 -0.755519 1.398024
H 4.954483 0.654852 0.776828
H 4.595399 -1.070916 0.376684
H 2.539015 0.538739 -2.440787
C -0.180473 1.862079 0.341758
N -0.305710 3.019161 0.722607
C -0.356700 3.678292 1.997924
H -1.326200 4.207450 2.116177
H 0.436958 4.452906 2.061574
H -0.235122 2.976814 2.853882
Br 0.231451 -2.262908 0.887976
