33

Ir 0.000000 -0.191588 -0.198295
H 0.000000 -0.508897 -1.905714
H 0.000001 -1.424916 -1.499739
N -2.092600 -0.183120 -0.231443
C -4.904843 -0.156396 -0.407017
C -4.135693 0.846013 -1.014989
C -2.743172 0.801136 -0.908587
C -2.837513 -1.151304 0.367162
C -4.233798 -1.167021 0.294822
H -6.002962 -0.148267 -0.477368
H -4.601652 1.668200 -1.576888
H -2.098812 1.561730 -1.369921
H -2.268935 -1.917669 0.914498
H -4.779783 -1.978204 0.797561
N 2.092601 -0.183118 -0.231441
C 4.904843 -0.156398 -0.407018
C 4.233798 -1.167026 0.294816
C 2.837513 -1.151308 0.367157
C 2.743173 0.801141 -0.908579
C 4.135694 0.846016 -1.014982
H 6.002962 -0.148270 -0.477370
H 4.779781 -1.978213 0.797548
H 2.268934 -1.917675 0.914489
H 2.098814 1.561738 -1.369908
H 4.601654 1.668207 -1.576876
C -0.000001 1.627885 0.348949
N 0.000000 2.796307 0.715308
C 0.000001 3.445389 2.000977
H -0.890852 4.101467 2.093204
H 0.890860 4.101459 2.093206
H -0.000003 2.722203 2.846605
C -0.000001 -1.830303 1.067818
N -0.000001 -2.735432 1.830747
