28

Ir -0.094174 -0.261180 -0.188398
H -0.059354 -0.858039 -1.799268
H -0.048373 0.096430 -1.989693
N 1.962367 -0.203582 -0.195261
C 2.582820 0.908330 -0.678675
C 3.980166 0.970293 -0.747271
N 4.783406 -0.027303 -0.346430
C 4.158181 -1.110058 0.142491
C 2.765220 -1.218076 0.221988
H 1.919036 1.737411 -0.969489
H 4.458481 1.880933 -1.147050
H 4.784875 -1.949545 0.489731
H 2.273692 -2.118829 0.613131
N -2.155156 -0.156199 -0.274630
C -4.478842 -0.596757 -0.216502
O -4.169128 0.782260 -0.593359
C -2.843948 0.904205 -0.564442
C -3.096919 -1.270130 -0.052502
H -2.899264 -2.070381 -0.794168
H -2.931797 -1.699719 0.955681
H -5.102545 -1.032712 -1.020838
H -5.070538 -0.560646 0.719772
H -2.385536 1.884666 -0.768549
C -0.162639 -1.559772 1.140238
O -0.211865 -2.420002 1.943013
N -0.128088 1.923936 0.003674
C -0.104323 2.726029 0.920841
O -0.084417 3.577611 1.763954
