43

Ir -0.040431 0.312596 -0.027937
H -0.054669 2.032816 0.199008
H -0.023736 1.966840 -0.763802
C -2.117183 0.261983 -0.119513
C -4.335176 0.795960 -0.009526
C -4.241225 -0.485290 -0.481938
H -5.207655 1.426015 0.186617
H -5.017639 -1.196410 -0.778798
C -2.367568 -2.081788 -0.979852
H -1.722538 -1.942996 -1.869722
H -1.753447 -2.530221 -0.176020
H -3.218662 -2.746623 -1.216107
C -2.698918 2.544640 0.733546
H -1.894941 2.443118 1.487329
H -2.337753 3.211971 -0.075077
H -3.596686 2.990839 1.200371
N -3.035275 1.230530 0.214182
N -2.890347 -0.794153 -0.537828
C 2.035665 0.236047 -0.041793
C 4.184485 -0.549833 -0.583132
C 4.316171 0.826158 0.083201
H 4.825334 -1.326645 -0.115573
H 4.888819 1.553287 -0.530165
C 2.623530 2.516078 0.832044
H 2.725684 3.353311 0.106175
H 1.589934 2.503036 1.224068
H 3.321717 2.703147 1.677259
C 2.255262 -2.123077 -0.877385
H 2.904392 -2.941113 -0.499245
H 1.225960 -2.256593 -0.501028
H 2.214407 -2.156630 -1.987509
N 2.764120 -0.854462 -0.400776
N 2.917868 1.238398 0.229777
H 4.805596 0.774312 1.084393
H 4.429962 -0.520720 -1.670130
C -0.080732 -0.771138 1.517379
N -0.099855 -1.486091 2.513754
C -0.093470 -2.911451 2.705678
H -0.997726 -3.228087 3.268127
H 0.782731 -3.213217 3.318308
H -0.060277 -3.482703 1.748516
C 0.030356 -0.260268 -2.020069
N 0.088799 -0.687753 -3.121631
