31

Ir 0.417957 0.315028 0.241910
H 0.452807 0.395356 1.965698
H 0.509273 -0.543284 1.852568
N 2.671302 0.393677 0.227421
C 3.138767 0.156030 -1.164629
C 3.146510 1.719687 0.696360
C 3.234344 -0.665195 1.106378
H 2.743223 2.515536 0.044753
H 4.259545 1.754296 0.681370
H 2.787564 1.897728 1.726493
H 2.832199 -1.646095 0.787701
H 2.935733 -0.473081 2.153263
H 4.345051 -0.661970 1.038392
H 2.754520 0.956210 -1.822486
H 2.741323 -0.817221 -1.511016
H 4.251768 0.152722 -1.196621
P -1.816610 0.198601 0.164357
C -4.932890 0.032867 0.073489
C -4.199849 -1.152258 0.269850
C -2.801926 -1.216817 0.328034
C -2.936846 1.500457 -0.063139
C -4.322557 1.289607 -0.087358
H -6.031248 -0.026832 0.041102
H -4.758192 -2.097422 0.378980
H -2.272169 -2.174182 0.451972
H -2.520805 2.511520 -0.193479
H -4.972091 2.168269 -0.238930
C 0.354495 1.862618 -0.790626
N 0.318545 2.954228 -1.358599
H 0.302516 3.044795 -2.382913
Br 0.562750 -2.251138 -0.547462
