52

Ir 1.162414 -0.182967 0.206186
H 1.206903 -0.241433 1.900513
H 1.238286 0.751533 1.754337
P -1.104893 0.025930 0.062333
C -1.654712 -2.402572 1.360272
C -2.123148 -1.471070 0.411224
C -1.656266 0.539167 -1.626741
C -1.091941 -0.112142 -2.744796
C -1.509163 0.225205 -4.040492
C -2.486230 1.216745 -4.233188
C -3.047434 1.868559 -3.123955
C -2.637239 1.532125 -1.823364
C -1.795248 1.325530 1.172150
C -1.135549 2.576048 1.188814
C -1.629861 3.601669 2.007458
C -2.762393 3.389091 2.813465
C -3.408728 2.143152 2.799809
C -2.930141 1.108601 1.978186
C -3.367518 -1.684660 -0.217775
C -4.134131 -2.815032 0.105116
C -3.666715 -3.736719 1.056225
C -2.427010 -3.528479 1.682491
H -0.671418 -2.242225 1.829909
H -0.314560 -0.876882 -2.590272
H -1.062687 -0.287190 -4.906534
H -2.807233 1.485004 -5.251546
H -3.809388 2.649924 -3.268835
H -3.075828 2.049997 -0.957188
H -0.240882 2.700138 0.541579
H -1.119811 4.577648 2.020691
H -3.140962 4.197400 3.458578
H -4.292242 1.970546 3.433745
H -3.440486 0.133637 1.970483
H -3.735824 -0.967675 -0.967373
H -5.101648 -2.978354 -0.394132
H -4.268099 -4.624854 1.304644
H -2.052292 -4.253069 2.421599
N 3.319909 -0.030431 0.149104
C 6.095290 0.322882 0.101273
C 5.231407 1.357056 -0.289843
C 3.848272 1.149910 -0.255250
C 4.144231 -1.035260 0.525430
C 5.536163 -0.895991 0.513631
H 7.187073 0.462936 0.085518
H 5.620181 2.330392 -0.623617
H 3.072226 1.892138 -0.551021
H 3.653901 -1.968011 0.841194
H 6.166260 -1.740944 0.826766
C 1.172460 -1.908497 -0.492632
O 1.191589 -3.019117 -0.886174
O 1.137731 1.837669 -0.659866
H 0.795742 1.751573 -1.570814
