35

Ir -0.127572 0.037198 -0.299032
H -0.105477 -0.176043 -1.997480
H -0.277531 -1.094431 -1.766826
N -2.277877 0.410280 -0.319578
C -2.738110 0.564903 1.089249
C -2.605362 1.644337 -1.082809
C -3.015079 -0.728445 -0.936213
H -2.074227 2.506531 -0.642358
H -3.703680 1.826097 -1.062681
H -2.269038 1.526609 -2.128693
H -2.828063 -1.656249 -0.368878
H -2.669525 -0.868290 -1.976193
H -4.106344 -0.512695 -0.936777
H -2.247055 1.447018 1.536660
H -2.442974 -0.333307 1.661181
H -3.843301 0.694630 1.119573
N 1.876779 -0.394062 -0.186489
C 4.232850 -0.338767 -0.385710
O 3.755749 -1.482453 0.389392
C 2.424752 -1.381889 0.447130
C 2.944700 0.386132 -0.838867
H 2.786697 0.370611 -1.936548
H 2.881635 1.442113 -0.508476
H 4.848698 -0.729389 -1.219298
H 4.876196 0.271215 0.280120
H 1.841682 -2.127787 1.010397
C 0.206029 1.778573 0.261033
N 0.446021 2.956888 0.524863
C 0.564218 3.681394 1.764262
H -0.190914 4.495196 1.805516
H 1.558720 4.171890 1.827686
H 0.434370 3.034342 2.661141
N -0.462126 -1.826906 0.798071
C -1.164433 -2.801885 0.957307
O -1.858727 -3.767776 1.147741
