42

Ir -0.000002 -0.119306 -0.235351
H -0.000002 -0.757627 -1.808932
H -0.000012 -1.581235 -1.224378
C -2.071397 -0.208632 -0.065844
C -4.258601 0.232272 0.448945
C -4.198279 -1.052789 -0.012275
H -5.105229 0.828418 0.801506
H -4.981604 -1.805896 -0.138065
C -2.388195 -2.609907 -0.749385
H -1.965664 -2.553087 -1.771788
H -1.601121 -2.956668 -0.049591
H -3.237457 -3.318026 -0.744297
C -2.619432 2.050850 0.910532
H -1.607500 2.006816 1.355742
H -2.614989 2.797505 0.091997
H -3.357771 2.351654 1.678209
N -2.961829 0.727927 0.418105
N -2.868959 -1.306505 -0.316538
C 2.071393 -0.208645 -0.065844
C 4.258598 0.232245 0.448947
C 4.198270 -1.052815 -0.012275
H 5.105230 0.828386 0.801510
H 4.981590 -1.805925 -0.138066
C 2.388177 -2.609921 -0.749388
H 1.601102 -2.956678 -0.049593
H 1.965645 -2.553097 -1.771790
H 3.237434 -3.318044 -0.744302
C 2.619439 2.050831 0.910540
H 2.614996 2.797488 0.092007
H 1.607508 2.006799 1.355751
H 3.357781 2.351630 1.678216
N 2.961830 0.727908 0.418109
N 2.868948 -1.306522 -0.316539
C -0.000004 1.751418 -0.609698
N 0.000029 2.914421 -0.998901
C 0.000042 4.208660 -0.386813
H -0.889865 4.792526 -0.708239
H 0.889985 4.792491 -0.708203
H 0.000018 4.166776 0.728333
C -0.000013 -1.485068 1.337176
C -0.000008 -2.333120 2.243382
H -0.000001 -3.020532 3.078348
