38

Ir -0.012195 -0.214600 -0.390316
H -0.161056 -0.280595 -2.107601
H 0.135538 0.613499 -2.050388
P 2.188488 -0.983920 -0.422095
C 2.989575 -0.979737 1.230821
C 3.338750 0.008585 -1.455546
C 2.402076 -2.707413 -1.030106
H 3.041536 0.066485 1.595746
H 4.014746 -1.398752 1.172483
H 2.375296 -1.577867 1.930534
H 3.422163 1.026133 -1.021927
H 2.937683 0.083473 -2.484642
H 4.342562 -0.461881 -1.478165
H 1.767112 -3.381935 -0.423470
H 3.461723 -3.028328 -0.970670
H 2.053658 -2.762597 -2.079807
As -2.264519 0.719940 -0.081474
C -3.217939 1.281518 -1.700825
C -2.309429 2.336785 1.014976
C -3.593316 -0.425618 0.790222
H -2.597158 2.030492 -2.228885
H -4.203936 1.719486 -1.450092
H -3.352614 0.401494 -2.358446
H -1.607060 3.068413 0.574044
H -1.943896 2.080764 2.027202
H -3.335288 2.750246 1.066435
H -3.695226 -1.361434 0.208622
H -4.571394 0.088683 0.861401
H -3.226366 -0.677905 1.803409
C -0.546526 -1.815415 0.410668
N -0.910386 -2.899085 0.844614
C -1.059697 -3.502177 2.138538
H -0.531144 -4.477713 2.172137
H -2.131761 -3.713241 2.339636
H -0.669376 -2.859343 2.959392
N 0.816399 1.662102 0.276098
C 1.771703 2.277811 0.663437
S 3.082614 3.086889 1.174960
