32

Ir -0.096296 -0.098361 -0.171666
H -0.204884 -0.430437 -1.889468
H -0.186194 0.533311 -1.879610
As 2.285598 0.013113 -0.101334
C 3.010995 0.484198 1.646633
C 3.068809 1.342836 -1.295110
C 3.248383 -1.631860 -0.548289
H 2.534072 1.436499 1.945901
H 4.113030 0.585357 1.604856
H 2.724038 -0.306175 2.365704
H 2.611059 2.315936 -1.034857
H 2.804738 1.083778 -2.337975
H 4.169243 1.378375 -1.176736
H 2.915036 -2.428277 0.144411
H 4.342903 -1.486057 -0.461116
H 2.985586 -1.927969 -1.581551
N -2.257416 0.014452 -0.093713
C -5.065909 0.137930 -0.060069
C -4.290192 1.248738 0.300319
C -2.894581 1.153142 0.275185
C -3.005148 -1.062154 -0.441877
C -4.403203 -1.039476 -0.436172
H -6.165291 0.187106 -0.046634
H -4.754408 2.197382 0.606693
H -2.233413 1.991171 0.550051
H -2.440325 -1.959882 -0.731986
H -4.956822 -1.944123 -0.726137
C -0.072686 -1.706036 0.811375
O -0.020807 -2.677822 1.473966
C 0.074615 1.882148 0.421269
C 0.224347 3.051573 0.812318
H 0.327495 4.070283 1.161495
