59

Ir -0.791350 -0.635109 -0.155705
H -0.587962 -1.113632 -1.784442
H -0.828349 -0.196878 -1.927500
P 1.478414 0.048535 -0.058411
C 2.480652 -2.548134 -0.418385
C 2.733664 -1.285087 0.155204
C 1.813613 1.199838 1.342440
C 1.229771 0.914299 2.594121
C 1.484658 1.742892 3.695409
C 2.313722 2.868636 3.555086
C 2.891144 3.160250 2.309659
C 2.645244 2.328995 1.204628
C 2.054776 0.975185 -1.545113
C 1.253128 2.046537 -2.000191
C 1.647435 2.782905 -3.126163
C 2.829923 2.453604 -3.811580
C 3.622228 1.385036 -3.364718
C 3.240254 0.646739 -2.231885
C 3.943910 -1.064628 0.845342
C 4.890099 -2.095589 0.952320
C 4.637641 -3.349303 0.371536
C 3.432384 -3.573482 -0.313638
H 1.522680 -2.722290 -0.933384
H 0.566059 0.042057 2.695835
H 1.023323 1.513890 4.668257
H 2.504151 3.524553 4.418472
H 3.535974 4.044782 2.192479
H 3.095825 2.565426 0.228897
H 0.321099 2.292090 -1.464378
H 1.021130 3.619173 -3.473111
H 3.132970 3.031316 -4.698516
H 4.547620 1.120672 -3.899435
H 3.867429 -0.187907 -1.884361
H 4.143917 -0.085110 1.305980
H 5.829898 -1.918261 1.497576
H 5.380114 -4.157314 0.460513
H 3.225417 -4.557585 -0.761271
C -2.842999 -0.913412 -0.131353
C -5.056469 -0.936384 -0.903561
C -5.053989 -0.601317 0.595836
H -5.341266 -0.056698 -1.523461
H -5.555611 -1.376444 1.218610
C -3.209092 -0.075951 2.212348
H -3.624172 -0.732746 3.007631
H -2.106713 -0.079031 2.266328
H -3.571566 0.962952 2.364465
C -3.242836 -1.690418 -2.480738
H -3.115798 -0.823926 -3.168771
H -2.287320 -2.242166 -2.423717
H -4.013668 -2.364616 -2.906243
N -3.651248 -1.284166 -1.156782
N -3.622126 -0.548810 0.909095
H -5.516700 0.383576 0.811310
H -5.727072 -1.780848 -1.166328
C -0.542622 -1.989459 1.088706
O -0.392840 -2.880721 1.840019
N -1.352359 1.497510 0.027178
C -2.368617 2.142118 0.029524
S -3.757909 2.982572 0.051150
