31

Ir 0.157399 0.046293 -0.210533
H 0.075769 0.165558 -1.948016
H 0.068617 -0.794785 -1.812812
N -2.008928 -0.014626 -0.117065
C -2.749303 1.065243 -0.463434
C -4.149226 1.027189 -0.408187
N -4.830706 -0.061258 -0.020352
C -4.085586 -1.123998 0.321330
C -2.683597 -1.119617 0.282877
H -2.195170 1.957812 -0.787215
H -4.732167 1.919996 -0.694106
H -4.615905 -2.035047 0.647899
H -2.074816 -1.990523 0.573019
P 2.441129 -0.004830 -0.118051
C 3.297482 1.518679 -0.689114
C 3.195353 -1.356269 -1.104722
C 3.072076 -0.271603 1.582989
H 3.019508 1.717148 -1.742230
H 4.398297 1.417827 -0.603275
H 2.950512 2.368386 -0.069944
H 2.918522 -1.229725 -2.169328
H 2.776517 -2.314659 -0.740695
H 4.299070 -1.354806 -1.001769
H 2.706799 0.552353 2.226056
H 4.179824 -0.309956 1.601997
H 2.644705 -1.223543 1.953883
C 0.188595 1.672264 0.748522
N 0.248340 2.610025 1.547171
H 0.199869 3.588863 1.232983
C 0.272356 -1.889414 0.504505
N 0.376217 -2.971555 0.971212
