34

Ir 0.384030 -0.080654 0.205397
H 0.471501 -0.216128 1.959369
H 0.438806 0.727362 1.862180
As -1.988179 0.010745 0.075061
C -2.670378 0.310940 -1.727898
C -2.793576 1.456785 1.109137
C -2.967422 -1.580249 0.659849
H -2.180555 1.227942 -2.106520
H -3.772471 0.420286 -1.723768
H -2.371219 -0.546659 -2.359651
H -2.330064 2.398296 0.758226
H -2.550250 1.308238 2.178312
H -3.891519 1.479581 0.966412
H -2.620475 -2.441676 0.057554
H -4.059118 -1.442414 0.532915
H -2.729559 -1.772660 1.723196
N 2.636410 0.086975 0.091145
C 3.016769 0.205835 -1.340565
C 3.094204 1.300917 0.813322
C 3.286840 -1.105778 0.682903
H 2.576457 2.183864 0.395789
H 4.197282 1.414675 0.709777
H 2.836500 1.210821 1.884671
H 2.972944 -2.013331 0.136287
H 2.976086 -1.210888 1.738497
H 4.395804 -1.008880 0.630142
H 2.502236 1.082756 -1.774314
H 2.691110 -0.699319 -1.884078
H 4.121328 0.320935 -1.435818
C 0.392296 -1.787474 -0.577506
O 0.373168 -2.822892 -1.142260
C 0.263571 1.828513 -0.585265
C 0.177380 2.950537 -1.111848
H 0.126439 3.927099 -1.574481
