37

Ir 0.117396 -0.232157 -0.149037
H 0.135782 -0.514190 -1.836003
H 0.134037 -1.440680 -1.547807
P -2.133774 -0.229787 -0.031432
C -2.777245 -1.123021 1.444265
C -2.956960 -1.099237 -1.432860
C -2.994137 1.396917 0.023592
H -2.250390 -2.097626 1.473147
H -3.876724 -1.257246 1.398395
H -2.508013 -0.549874 2.353041
H -2.573939 -2.137694 -1.466524
H -2.684339 -0.593684 -2.379584
H -4.059870 -1.109154 -1.316699
H -2.603886 1.975672 0.882901
H -4.090959 1.266815 0.120037
H -2.761862 1.957070 -0.902894
N 2.381767 -0.420058 -0.054278
C 2.766590 -0.229935 1.363724
C 2.752519 -1.794495 -0.471065
C 3.056926 0.580171 -0.904953
H 2.122882 -2.494246 0.116669
H 3.837925 -1.973825 -0.294772
H 2.531219 -1.922395 -1.547135
H 2.771602 1.597020 -0.577730
H 2.734407 0.449009 -1.954455
H 4.164807 0.468008 -0.842031
H 2.227647 -0.986638 1.963351
H 2.466477 0.780255 1.697848
H 3.866377 -0.360724 1.492647
C 0.201783 1.572744 0.303463
N 0.275786 2.739589 0.693454
C 0.334323 3.987013 -0.025648
H 1.226341 4.570674 0.286847
H -0.552223 4.611293 0.218959
H 0.371198 3.851789 -1.131081
O 0.174545 -2.111987 0.948181
H 0.036588 -1.848484 1.877453
