56

Ir -0.976308 -0.635698 -0.262034
H -0.731351 -1.138086 -1.886336
H -0.958254 -0.229499 -2.056577
P 1.273348 0.050511 -0.025823
C 2.321827 -2.532790 -0.270829
C 2.496343 -1.276562 0.347007
C 1.506835 1.304752 1.303460
C 0.645231 1.284822 2.418772
C 0.816873 2.213457 3.455431
C 1.842575 3.170149 3.384236
C 2.696872 3.199936 2.270101
C 2.529894 2.273299 1.229218
C 1.950198 0.884880 -1.523643
C 1.199874 1.953007 -2.064988
C 1.666934 2.626280 -3.202060
C 2.872836 2.237236 -3.811717
C 3.614764 1.172466 -3.278064
C 3.158784 0.496169 -2.133633
C 3.600066 -1.069012 1.199284
C 4.521690 -2.104681 1.421139
C 4.351271 -3.349088 0.793520
C 3.250175 -3.560804 -0.052706
H 1.440254 -2.701662 -0.908782
H -0.175745 0.551784 2.449995
H 0.132670 2.200194 4.317474
H 1.968704 3.904618 4.194570
H 3.494241 3.956112 2.204337
H 3.190340 2.311524 0.349153
H 0.249366 2.246016 -1.588888
H 1.080786 3.460249 -3.617770
H 3.233669 2.765868 -4.707537
H 4.558467 0.862662 -3.753031
H 3.745633 -0.336129 -1.716607
H 3.737921 -0.097124 1.696446
H 5.378114 -1.936470 2.092152
H 5.074852 -4.159713 0.970852
H 3.104500 -4.538206 -0.537524
P -3.272972 -1.129028 -0.318647
C -4.222755 -0.230945 -1.608834
C -4.142361 -0.692956 1.238837
C -3.673771 -2.902746 -0.591055
H -4.192187 0.854294 -1.382332
H -5.277495 -0.572537 -1.621929
H -3.759490 -0.408742 -2.598414
H -4.067105 0.403550 1.391279
H -3.649895 -1.213272 2.082442
H -5.211463 -0.983199 1.189306
H -3.279337 -3.211163 -1.578828
H -4.767274 -3.082066 -0.552468
H -3.162016 -3.504186 0.185509
C -0.761884 -2.004856 0.980562
N -0.629349 -3.015666 1.671102
H -0.675091 -2.999212 2.696764
N -1.567493 1.445347 -0.121480
C -2.450898 2.219210 0.132325
S -3.667692 3.240363 0.460305
