27

Ir -0.154323 0.055516 -0.179002
H -0.141467 0.386115 -1.843541
H -0.162688 -0.611196 -1.893158
N -2.222431 -0.064349 -0.116660
C -4.433202 0.305782 -0.208630
C -3.192157 0.853065 -0.471735
N -4.182538 -0.952040 0.309800
C -2.839367 -1.151722 0.356858
H -4.883609 -1.626455 0.616187
H -5.445285 0.698272 -0.343427
H -2.927440 1.833057 -0.880257
H -2.256438 -2.025074 0.702821
N 1.917184 -0.062857 -0.098012
C 4.707677 -0.320989 0.072042
C 4.124237 0.849894 -0.433313
C 2.731145 0.944978 -0.503283
C 2.473787 -1.201045 0.399226
C 3.859204 -1.356519 0.493845
H 5.801645 -0.422123 0.138856
H 4.737049 1.696662 -0.774591
H 2.223635 1.841849 -0.886099
H 1.712420 -1.956689 0.694426
H 4.262640 -2.293297 0.905780
C -0.157486 1.647951 0.777044
O -0.157341 2.683462 1.341647
O -0.226018 -2.068768 0.431150
H -0.199249 -2.587060 -0.394469
