36

Ir 0.034326 0.117027 -0.317523
H 0.178727 -0.212497 -2.023345
H 0.133442 -1.083137 -1.731103
C -1.963369 0.163801 -0.320547
C -4.119312 0.160689 0.414412
C -4.155021 0.173117 -0.953631
H -4.928428 0.148735 1.150396
H -4.999252 0.174236 -1.649114
C -2.437748 0.205399 -2.783254
H -1.621357 0.939431 -2.923553
H -2.074976 -0.791197 -3.106836
H -3.307164 0.494059 -3.402329
C -2.309108 0.126411 2.161098
H -1.629859 -0.743347 2.286417
H -1.749994 1.052221 2.396940
H -3.182061 0.035913 2.833543
N -2.783145 0.161534 0.783831
N -2.835281 0.186670 -1.386560
N 2.216779 0.042423 -0.274847
C 5.029357 -0.026132 -0.318742
C 4.331786 1.117718 -0.734059
C 2.933363 1.113501 -0.698510
C 2.889133 -1.061075 0.134176
C 4.287330 -1.130169 0.123259
H 6.129655 -0.054362 -0.338150
H 4.859096 2.015723 -1.087437
H 2.345109 1.988572 -1.010596
H 2.250344 -1.894841 0.479810
H 4.779209 -2.052588 0.465061
C 0.082041 1.830212 0.394747
N 0.165194 2.999163 0.754330
C 0.167784 3.676777 2.021394
H 0.063052 2.984028 2.887189
H -0.659297 4.417227 2.061447
H 1.112113 4.247389 2.148352
Br -0.174392 -2.357334 0.835237
