31

Ir -0.087485 0.451924 0.081627
H -0.155967 0.941342 1.822987
H -0.185291 0.081893 1.975453
C 1.905272 0.217149 0.049089
C 3.967469 -0.492867 -0.596699
C 4.123031 0.205011 0.571265
H 4.701929 -0.999261 -1.229692
H 5.017653 0.427881 1.159859
C 2.586091 1.433859 2.131545
H 1.826073 2.200509 1.887953
H 2.198486 0.799763 2.954691
H 3.519203 1.926979 2.461499
C 2.017691 -1.112207 -2.067792
H 1.243811 -1.830417 -1.723430
H 1.540178 -0.352662 -2.716188
H 2.811776 -1.636778 -2.630267
N 2.616810 -0.469998 -0.903918
N 2.859001 0.641742 0.944962
N -2.219566 0.459603 0.082348
C -4.429983 -0.270037 -0.342429
O -4.368050 0.771935 0.687234
C -3.069760 1.042358 0.857806
C -2.986928 -0.362115 -0.877341
H -2.855282 0.069120 -1.892087
H -2.563583 -1.388196 -0.871887
H -5.182175 0.040800 -1.092313
H -4.771695 -1.201292 0.154689
H -2.810991 1.755078 1.654539
C 0.022268 1.631083 -1.316482
O 0.111362 2.371675 -2.229301
Br -0.318540 -2.255846 0.366227
