37

Ir 0.000003 -0.098723 -0.251515
H 0.000020 -0.679471 -2.022215
H 0.000022 -1.509126 -1.850082
P -2.328732 -0.184784 -0.057813
C -2.928267 -0.311587 1.678694
C -3.112083 -1.639987 -0.869858
C -3.278511 1.247155 -0.730197
H -2.459608 -1.214093 2.117515
H -4.033513 -0.391158 1.726692
H -2.586916 0.577605 2.242911
H -2.629849 -2.543226 -0.445233
H -2.909029 -1.603711 -1.958031
H -4.206453 -1.666687 -0.693329
H -2.917990 2.176504 -0.247906
H -4.368277 1.133661 -0.559261
H -3.078272 1.330899 -1.816161
P 2.328736 -0.184787 -0.057812
C 3.112082 -1.640193 -0.869496
C 2.928250 -0.311169 1.678734
C 3.278528 1.246979 -0.730543
H 2.629793 -2.543322 -0.444700
H 4.206442 -1.666880 -0.692901
H 2.909090 -1.604148 -1.957688
H 2.459521 -1.213523 2.117795
H 2.586966 0.578201 2.242709
H 4.033488 -0.390822 1.726767
H 3.078094 1.330609 -1.816480
H 4.368316 1.133403 -0.559794
H 2.918184 2.176419 -0.248296
C 0.000011 1.756606 -0.179175
N 0.000035 2.977403 -0.113728
C -0.000030 3.988498 0.900830
H 0.890420 4.644557 0.795299
H 0.000573 3.561031 1.929242
H -0.891195 4.643709 0.796018
S -0.000014 -2.377852 0.879551
H 0.000002 -1.929213 2.167474
