34

Ir 0.319020 0.050451 -0.214311
H 0.409203 -0.642793 -1.807305
H 0.426009 -1.447023 -1.365218
C -1.685849 0.059846 -0.160832
C -3.868016 0.580741 0.264282
C -3.847361 -0.659814 -0.307379
H -4.702162 1.191395 0.621116
H -4.659731 -1.352516 -0.544826
C -2.087738 -2.259154 -1.076113
H -1.650406 -2.152773 -2.088276
H -1.333972 -2.687947 -0.384346
H -2.968509 -2.924627 -1.130826
C -2.170172 2.254720 0.996863
H -1.305614 2.079889 1.662832
H -1.892132 3.025704 0.252985
H -3.027264 2.617324 1.593845
N -2.549197 1.003906 0.356060
N -2.518475 -0.967594 -0.557305
N 2.581886 -0.150781 -0.032200
C 2.993751 -1.560027 -0.256536
C 3.293832 0.720178 -0.995940
C 2.939266 0.235160 1.357677
H 2.994458 0.452788 -2.026400
H 4.396640 0.598519 -0.890381
H 3.028616 1.778310 -0.819418
H 2.372246 -0.410235 2.055341
H 2.653833 1.288826 1.531222
H 4.034837 0.114551 1.523011
H 2.782049 -1.841746 -1.304798
H 2.405541 -2.210710 0.418932
H 4.083810 -1.677350 -0.061218
C 0.490400 1.878071 -0.243106
O 0.705513 3.038224 -0.321053
Cl 0.164456 -1.805124 1.529102
