52

Ir 1.148890 -0.073807 0.154185
H 1.197252 -0.251126 1.963538
H 1.259170 0.625251 1.972322
P -1.128408 -0.007399 0.051027
C -1.429501 -2.735369 0.672606
C -1.944644 -1.663873 -0.086719
C -1.811160 0.904394 -1.401826
C -1.194101 0.703398 -2.654993
C -1.701986 1.336648 -3.797851
C -2.822224 2.180248 -3.699276
C -3.436200 2.383287 -2.453700
C -2.936851 1.745140 -1.306014
C -1.980054 0.742332 1.514195
C -1.607285 2.040654 1.927232
C -2.242768 2.634455 3.027184
C -3.243527 1.942470 3.730156
C -3.613401 0.651389 3.323361
C -2.988656 0.051303 2.217678
C -3.085494 -1.870010 -0.888462
C -3.699449 -3.132248 -0.929698
C -3.186159 -4.193462 -0.167620
C -2.051105 -3.991700 0.635220
H -0.525863 -2.575920 1.281831
H -0.304361 0.056684 -2.719741
H -1.214444 1.176496 -4.771803
H -3.214138 2.684178 -4.596207
H -4.310941 3.046571 -2.370183
H -3.420474 1.908739 -0.331317
H -0.816822 2.573837 1.367403
H -1.947903 3.648424 3.339227
H -3.735423 2.410029 4.597318
H -4.396375 0.101759 3.868391
H -3.290684 -0.958952 1.905301
H -3.494663 -1.042802 -1.487490
H -4.584758 -3.285969 -1.565793
H -3.668058 -5.182684 -0.203959
H -1.639763 -4.821646 1.230038
N 3.349427 -0.053206 0.176936
C 6.154155 -0.112568 0.210445
C 5.409046 -1.182192 0.728483
C 4.012247 -1.117743 0.688739
C 4.063109 0.981013 -0.322961
C 5.463247 0.983926 -0.323785
H 7.254681 -0.135964 0.221778
H 5.897030 -2.068347 1.159152
H 3.381644 -1.934841 1.069419
H 3.449570 1.827036 -0.689877
H 5.997465 1.848374 -0.744549
C 1.214573 -1.629421 -0.844409
O 1.295328 -2.582250 -1.531347
S 1.129380 2.427778 -0.213438
H 0.659847 2.418621 -1.493151
