30

Ir -0.075402 0.007912 -0.300567
H -0.073120 -0.065709 -1.990125
H -0.001287 -1.040769 -1.783374
N -2.135841 -0.165961 -0.263758
C -4.337625 0.224856 -0.483835
C -3.078522 0.759642 -0.673659
N -4.130051 -1.034964 0.046727
C -2.793103 -1.244839 0.171735
H -4.852474 -1.705983 0.307412
H -5.336454 0.626070 -0.678123
H -2.778559 1.736605 -1.063996
H -2.284200 -2.131348 0.573374
N 1.996227 0.132759 -0.329202
C 4.190962 -0.339170 -0.209831
C 2.923159 -0.857574 -0.040101
N 4.016350 0.973746 -0.602064
C 2.682021 1.229715 -0.667141
H 4.754574 1.645166 -0.811667
H 5.178709 -0.791536 -0.083255
H 2.631384 -1.863250 0.280156
H 2.236308 2.192599 -0.935375
C -0.168822 1.729014 0.410696
N -0.198922 2.918375 0.726343
C -0.236005 3.578940 2.006652
H -1.156416 4.195379 2.091466
H 0.622001 4.278266 2.101811
H -0.208105 2.869618 2.864146
N -0.050021 -1.946201 0.723801
C 0.686663 -2.853765 1.037254
O 1.422130 -3.757440 1.355952
