64

Ir -0.766176 -0.572581 0.205648
H -0.583468 -1.198397 1.840388
H -0.724650 -0.339132 2.101375
P -3.112504 -0.839308 0.205883
C -3.845845 -0.840287 -1.496313
C -4.071404 0.474256 1.094135
C -3.597196 0.782647 2.514677
C -3.747410 -2.410098 0.967653
C -3.063859 -3.690844 0.486747
C -3.378588 0.316128 -2.384282
H -3.563719 -1.815857 -1.946775
H -4.951279 -0.846102 -1.373086
H -4.015369 1.390938 0.469323
H -5.130281 0.133378 1.079737
H -3.610425 -2.283918 2.062956
H -4.844207 -2.437282 0.784506
H -2.563391 1.180032 2.501061
H -4.247223 1.555279 2.971806
H -3.620562 -0.108529 3.175612
H -3.168297 -3.836625 -0.607397
H -1.979243 -3.668337 0.711815
H -3.503880 -4.578164 0.985122
H -3.625143 1.310415 -1.958907
H -2.279185 0.280953 -2.519988
H -3.853073 0.246666 -3.383857
P 1.526300 -0.006370 0.041661
C 1.914460 1.349187 2.459095
C 1.922597 1.479729 1.053757
C 2.014029 0.433990 -1.679800
C 1.079637 1.145231 -2.465368
C 1.409683 1.523247 -3.774794
C 2.660282 1.181014 -4.316081
C 3.585149 0.463896 -3.541052
C 3.268321 0.093524 -2.224143
C 2.762138 -1.256829 0.591486
C 2.433268 -2.626764 0.539301
C 3.378568 -3.593366 0.915919
C 4.653785 -3.201473 1.353542
C 4.984719 -1.837495 1.414046
C 4.045343 -0.866831 1.034844
C 2.138820 2.743489 0.473929
C 2.347224 3.864660 1.293136
C 2.344750 3.731559 2.689506
C 2.131257 2.470091 3.271262
H 1.736528 0.365005 2.920534
H 0.095881 1.399428 -2.040926
H 0.678254 2.083093 -4.377357
H 2.912569 1.469657 -5.348098
H 4.563003 0.185807 -3.963393
H 3.998092 -0.471378 -1.625301
H 1.428101 -2.930931 0.211407
H 3.112382 -4.660500 0.872237
H 5.391698 -3.961120 1.654249
H 5.981406 -1.525027 1.761743
H 4.305944 0.201282 1.090741
H 2.134310 2.858521 -0.619635
H 2.505448 4.851086 0.831465
H 2.504474 4.613547 3.328417
H 2.125817 2.359531 4.366503
C -0.622436 -1.886611 -1.083966
O -0.555658 -2.724213 -1.908170
N -1.136147 1.540929 0.212951
C -1.756169 2.532284 -0.056276
S -2.623144 3.856987 -0.407214
