53

Ir -0.932541 -0.350032 -0.223864
H -0.815520 -1.102416 -1.742639
H -0.843842 -0.150294 -2.017087
P 1.399110 -0.051201 -0.053240
C 1.996136 -2.779379 -0.294925
C 2.361273 -1.571128 0.335960
C 1.869903 1.159388 1.246990
C 1.116116 1.212865 2.436851
C 1.483786 2.099449 3.458291
C 2.598198 2.939821 3.297649
C 3.346651 2.892424 2.111043
C 2.985455 2.005665 1.084235
C 2.165790 0.599589 -1.594935
C 1.560489 1.717247 -2.212130
C 2.125895 2.255221 -3.376592
C 3.283467 1.684996 -3.934605
C 3.880636 0.571985 -3.323032
C 3.326712 0.027366 -2.152445
C 3.458164 -1.552061 1.221284
C 4.182808 -2.729381 1.466415
C 3.822183 -3.927191 0.829538
C 2.728353 -3.949877 -0.051945
H 1.123739 -2.798915 -0.966767
H 0.228451 0.570887 2.545141
H 0.885788 2.144021 4.381088
H 2.878048 3.642536 4.097477
H 4.214703 3.555950 1.977089
H 3.567098 1.979637 0.150228
H 0.648574 2.150394 -1.765348
H 1.653973 3.127312 -3.854731
H 3.720371 2.109343 -4.851799
H 4.785595 0.120210 -3.757634
H 3.799478 -0.844413 -1.675652
H 3.743460 -0.616330 1.724971
H 5.033810 -2.708579 2.164307
H 4.390689 -4.849086 1.026366
H 2.435666 -4.888593 -0.546505
P -3.254236 -0.353334 -0.223180
C -6.380488 -0.370862 -0.189603
C -5.707306 -1.587927 -0.393654
C -4.311489 -1.711349 -0.427798
C -4.315711 0.998021 0.017261
C -5.709113 0.850137 0.006378
H -7.480922 -0.373340 -0.178247
H -6.309893 -2.500965 -0.534621
H -3.845172 -2.695630 -0.590271
H -3.871157 1.990176 0.195156
H -6.315820 1.757039 0.167561
C -0.904230 -1.684497 1.088029
O -0.882906 -2.573071 1.851152
N -0.966834 1.812907 -0.179020
C -1.533635 2.760417 0.317644
O -2.092971 3.728763 0.760530
