53

Ir 1.249866 -0.048642 0.202804
H 1.241467 -0.206393 1.935077
H 1.266964 0.766882 1.809402
P -1.027202 -0.004547 0.057805
C -1.345267 -2.593564 1.098646
C -1.851777 -1.658135 0.171670
C -1.705477 0.709002 -1.501854
C -0.998195 0.502916 -2.703451
C -1.518153 0.987599 -3.912054
C -2.735025 1.689609 -3.929526
C -3.435648 1.905636 -2.732214
C -2.924840 1.416195 -1.519262
C -1.850216 0.980474 1.386142
C -1.389271 2.295621 1.617814
C -1.997799 3.083427 2.605156
C -3.058154 2.570162 3.372037
C -3.514110 1.262647 3.145290
C -2.915524 0.467790 2.153241
C -2.968976 -2.000143 -0.615791
C -3.571938 -3.261076 -0.474797
C -3.070438 -4.184772 0.455326
C -1.956821 -3.847180 1.243582
H -0.453242 -2.330999 1.689309
H -0.033269 -0.025749 -2.678705
H -0.959883 0.825893 -4.846900
H -3.135062 2.077209 -4.879368
H -4.384852 2.463477 -2.738737
H -3.473567 1.592899 -0.581495
H -0.552654 2.692013 1.017999
H -1.635741 4.108539 2.779223
H -3.528927 3.191255 4.149903
H -4.342777 0.853326 3.743643
H -3.280065 -0.555614 1.979134
H -3.366302 -1.282292 -1.348724
H -4.439000 -3.522283 -1.100961
H -3.544731 -5.172579 0.563144
H -1.556536 -4.569092 1.972359
N 3.395845 -0.009967 0.234046
C 5.680915 -0.620171 0.366696
O 5.488001 0.793813 0.052064
C 4.167894 0.997340 -0.006227
C 4.245510 -1.178923 0.515951
H 4.018676 -1.561071 1.531995
H 4.003639 -1.985071 -0.205655
H 6.287001 -0.680016 1.292361
H 6.253328 -1.074072 -0.466914
H 3.793747 2.002301 -0.262811
C 1.293772 -1.625160 -0.832006
N 1.323199 -2.530168 -1.672645
H 1.285037 -3.514848 -1.371893
C 1.296210 1.903966 -0.498293
C 1.354555 3.049608 -0.971089
H 1.380386 4.033162 -1.420635
