38

Ir -0.022890 -0.239382 -0.316518
H -0.053729 -0.529601 -1.984086
H 0.196586 0.422591 -1.995243
N 2.074900 -0.805544 -0.377411
C 3.931594 -2.073101 -0.520208
C 2.550775 -2.097237 -0.513782
N 4.274905 -0.741724 -0.386092
C 3.138030 -0.000243 -0.300981
H 5.220016 -0.359211 -0.349460
H 4.676457 -2.869468 -0.606633
H 1.864951 -2.947123 -0.585783
H 3.130125 1.091588 -0.172172
C -1.944162 0.295641 -0.223940
C -4.160572 0.757928 -0.837697
C -3.954169 1.152937 0.628194
H -4.244091 1.649046 -1.504399
H -4.475353 0.458312 1.330119
C -1.899109 1.333516 2.058161
H -2.185288 0.581058 2.829290
H -0.800944 1.355415 1.945106
H -2.240215 2.333198 2.396761
C -2.762230 -0.615985 -2.413610
H -1.957855 -1.371316 -2.343787
H -3.707678 -1.121610 -2.697271
H -2.498859 0.112460 -3.214912
N -2.930890 0.018814 -1.127674
N -2.504503 1.026812 0.779738
H -4.294353 2.183370 0.857732
H -5.057802 0.126401 -1.001564
C -0.398627 -1.734899 0.745583
N -0.638133 -2.791355 1.317244
C -0.690212 -3.201550 2.693891
H -1.677470 -3.657072 2.920210
H -0.517149 -2.361296 3.403692
H 0.073178 -3.984577 2.888115
N 0.641130 1.751063 0.233965
C 1.469367 2.606782 0.378112
S 2.637875 3.723192 0.563464
