28

Ir 0.440947 -0.394065 -0.180949
H 0.535709 -0.821707 -1.826211
H 0.493492 0.164004 -1.899012
N 2.563395 -0.155859 -0.144851
C 4.775520 -0.512850 -0.277655
C 3.534044 -1.101967 -0.413035
N 4.526227 0.799642 0.076642
C 3.184177 0.987824 0.151195
H 5.227705 1.518863 0.257014
H 5.787520 -0.909510 -0.400266
H 3.272409 -2.130683 -0.679147
H 2.662946 1.918162 0.408645
P -1.813757 -0.525855 -0.148550
C -4.923248 -0.723337 -0.098049
C -4.176390 -1.911941 -0.018499
C -2.775611 -1.960335 -0.032836
C -2.946387 0.780170 -0.229095
C -4.328090 0.547664 -0.196135
H -6.021484 -0.789856 -0.079169
H -4.721748 -2.867369 0.060196
H -2.250043 -2.925460 0.034894
H -2.560024 1.812400 -0.286091
H -4.987695 1.430276 -0.246326
C 0.551224 -1.889537 0.940006
O 0.624820 -2.869251 1.579607
N 0.360360 1.721233 0.283821
C -0.255540 2.755219 0.317094
S -1.073249 4.150319 0.363293
