33

Ir -0.378773 0.099909 0.170671
H -0.446787 -0.028227 1.983448
H -0.452843 -0.898804 1.917064
As 1.991610 0.013277 0.056661
C 2.736072 -0.431800 -1.695089
C 2.826828 -1.306705 1.230158
C 2.936704 1.670778 0.503796
H 2.349362 -1.431045 -1.968746
H 3.843031 -0.437308 -1.658688
H 2.379734 0.315228 -2.429141
H 2.405122 -2.291085 0.951238
H 2.559097 -1.074268 2.278423
H 3.927412 -1.298352 1.106865
H 2.579540 2.472556 -0.170425
H 4.031544 1.542550 0.396034
H 2.688473 1.949680 1.545442
N -2.647953 -0.030582 0.065005
C -3.017445 -0.216010 -1.360352
C -3.147448 -1.189677 0.844839
C -3.270338 1.208142 0.587246
H -2.641986 -2.105249 0.480547
H -4.250632 -1.285051 0.725950
H -2.909979 -1.044292 1.915057
H -2.942338 2.076929 -0.011689
H -2.954074 1.367403 1.634589
H -4.381471 1.132633 0.543591
H -2.540532 -1.143864 -1.727877
H -2.643910 0.639235 -1.952361
H -4.124789 -0.290938 -1.466566
C -0.375269 1.845048 -0.411347
O -0.345016 2.945309 -0.841020
S -0.232535 -2.315126 -0.569674
H -0.149860 -2.083856 -1.911862
