63

Ir 0.977482 0.086656 0.231678
H 0.940685 -0.046923 2.108555
H 0.992472 -0.887400 2.124417
P 3.334420 0.025286 0.093999
C 3.959716 0.597865 -1.558317
C 4.167773 -1.616312 0.314702
C 3.905096 -2.299298 1.656976
C 4.266073 1.102595 1.293828
C 3.779966 2.548182 1.402699
C 3.303882 -0.106195 -2.748050
H 3.754219 1.688802 -1.595527
H 5.064921 0.473481 -1.561510
H 3.771607 -2.249278 -0.506059
H 5.253403 -1.448489 0.141646
H 4.176095 0.594032 2.277127
H 5.340100 1.053459 1.007919
H 2.823887 -2.503422 1.788091
H 4.434197 -3.272762 1.702616
H 4.250060 -1.694509 2.520620
H 3.832782 3.085416 0.434436
H 2.725313 2.585925 1.739709
H 4.396710 3.112064 2.131762
H 3.479477 -1.200398 -2.733521
H 2.206005 0.045416 -2.726222
H 3.698896 0.292327 -3.704556
P -1.366661 -0.008678 0.053493
C -1.846569 -2.281470 1.645104
C -2.268123 -0.963968 1.357610
C -1.951914 -0.730627 -1.540157
C -3.043419 -1.616296 -1.620474
C -3.455280 -2.111288 -2.869286
C -2.787634 -1.720612 -4.040399
C -1.700673 -0.832257 -3.963225
C -1.279884 -0.342288 -2.719156
C -2.214693 1.634917 0.099700
C -1.778649 2.585179 1.047228
C -2.417060 3.829415 1.146972
C -3.489167 4.142040 0.294456
C -3.922936 3.203046 -0.654465
C -3.292950 1.951636 -0.750890
C -3.354836 -0.410865 2.066942
C -4.009622 -1.166189 3.053656
C -3.590975 -2.475530 3.336107
C -2.511131 -3.029418 2.627714
H -0.996248 -2.705953 1.078816
H -3.567549 -1.927350 -0.704258
H -4.303647 -2.810808 -2.924335
H -3.110961 -2.113261 -5.016772
H -1.170600 -0.525927 -4.878196
H -0.414355 0.335924 -2.643448
H -0.923001 2.344314 1.697790
H -2.067438 4.563994 1.888522
H -3.983625 5.123052 0.366285
H -4.759048 3.444539 -1.328775
H -3.640626 1.219021 -1.494580
H -3.693908 0.613105 1.852006
H -4.854676 -0.723935 3.603729
H -4.106943 -3.065186 4.109830
H -2.177575 -4.056617 2.842738
C 1.031591 1.837718 -0.334025
O 1.098240 2.915622 -0.804203
S 0.976854 -2.360672 -0.426321
H 0.439805 -2.198371 -1.667163
