32

Ir 0.009581 -0.043876 -0.086025
H 0.031972 0.230895 -1.770010
H 0.097563 1.162751 -1.472296
N 2.170378 0.058671 -0.049121
C 2.753570 1.151466 0.501796
C 4.148688 1.284403 0.491801
N 4.972814 0.371002 -0.049098
C 4.375570 -0.706289 -0.582213
C 2.984644 -0.877597 -0.590178
H 2.020288 1.861177 0.947787
H 4.612575 2.178517 0.943661
H 5.023123 -1.479791 -1.030769
H 2.507061 -1.766325 -1.027770
C -2.001794 0.115138 -0.051497
C -4.253248 -0.260940 0.031605
C -4.067497 1.071977 -0.209026
H -5.168378 -0.847472 0.153547
H -4.788788 1.883331 -0.342714
C -2.103209 2.599892 -0.505142
H -2.847574 3.378312 -0.253021
H -1.198352 2.679893 0.145539
H -1.821611 2.694417 -1.574325
C -2.785213 -2.246879 0.382730
H -2.278619 -2.734408 -0.471297
H -2.163818 -2.391668 1.285942
H -3.770347 -2.722809 0.539845
N -2.991348 -0.831312 0.125384
N -2.700223 1.289729 -0.251799
C 0.128011 -1.868306 0.216982
O 0.366435 -3.017870 0.353577
O 0.129652 1.761992 1.143470
H -0.200007 1.504824 2.024700
