46

Ir 0.089184 0.149976 -0.163626
H 0.056751 1.155932 -1.523373
H 0.092626 0.318122 -2.007331
P -2.252624 -0.081848 -0.049474
C -2.767216 -0.860773 1.554366
C -2.901327 -1.257222 -1.324991
C -2.908520 -0.722073 -2.757122
C -3.355827 1.409025 -0.169876
C -2.964639 2.559062 0.760774
C -1.974457 -2.118695 1.918459
H -2.614663 -0.078989 2.328723
H -3.860199 -1.061444 1.498292
H -2.181781 -2.099914 -1.238119
H -3.911143 -1.594887 -1.005790
H -3.298187 1.738847 -1.228714
H -4.402852 1.076542 0.005888
H -1.899790 -0.367286 -3.051475
H -3.196070 -1.524054 -3.467278
H -3.623626 0.114639 -2.899720
H -3.007769 2.264609 1.828984
H -1.927402 2.890955 0.554277
H -3.642243 3.426658 0.624344
H -2.050626 -2.901354 1.139291
H -0.899567 -1.875145 2.027695
H -2.339112 -2.541000 2.877197
C 2.145659 -0.008008 -0.149470
C 4.270842 -0.871880 0.313035
C 4.425461 0.430199 -0.483164
H 4.582224 -0.755612 1.378253
H 4.763827 0.246641 -1.530862
C 2.761168 2.216772 -1.105791
H 2.835251 2.158935 -2.216932
H 1.731458 2.516025 -0.834830
H 3.474088 2.989460 -0.749478
C 2.239537 -2.281358 0.865401
H 2.227728 -2.176166 1.974093
H 1.209348 -2.404251 0.457640
H 2.843474 -3.173457 0.601172
N 2.826811 -1.111463 0.238104
N 3.055722 0.951986 -0.476862
H 5.132992 1.149419 -0.021126
H 4.841812 -1.720993 -0.115102
C 0.133668 1.038476 1.459178
N 0.144965 1.553032 2.583374
H 0.172726 2.575529 2.694633
F -0.111738 -1.958247 -0.717353
