33

Ir 0.590338 -0.342950 -0.208528
H 0.689497 -0.791647 -1.834319
H 0.631398 0.203607 -1.931713
N 2.821440 -0.043553 -0.124074
C 3.170908 0.374100 1.259231
C 3.542677 -1.292107 -0.472456
C 3.219304 1.035902 -1.064911
H 3.250649 -2.100391 0.221843
H 4.642486 -1.129396 -0.413758
H 3.272920 -1.599892 -1.499289
H 2.632669 1.943983 -0.835832
H 3.002550 0.720439 -2.101757
H 4.307586 1.244601 -0.965179
H 2.906333 -0.433602 1.965007
H 2.589138 1.278571 1.514957
H 4.261253 0.587436 1.330520
P -1.646651 -0.552419 -0.157053
C -4.746763 -0.863256 -0.084694
C -4.198233 0.431748 -0.125029
C -2.825993 0.715082 -0.160135
C -2.555730 -2.024558 -0.099928
C -3.957263 -2.026689 -0.071218
H -5.841717 -0.970039 -0.059735
H -4.889553 1.291289 -0.125773
H -2.476227 1.761774 -0.172600
H -1.992020 -2.970115 -0.082898
H -4.468068 -3.003738 -0.036532
C 0.721489 -1.841130 0.905636
N 0.829227 -2.918847 1.489120
H 0.808058 -3.005384 2.512838
N 0.476397 1.763847 0.212119
C -0.162722 2.778760 0.320337
S -1.013670 4.145544 0.465345
