54

Ir 1.373934 -0.103008 0.218869
H 1.374465 0.043441 2.061680
H 1.456330 0.896718 1.997058
P -0.887693 0.007997 0.037262
C -1.330784 -2.558062 1.100705
C -1.765939 -1.617973 0.142907
C -1.492529 0.697241 -1.565453
C -0.840801 0.283771 -2.746971
C -1.286389 0.744502 -3.993686
C -2.378138 1.626794 -4.071454
C -3.026265 2.041513 -2.897704
C -2.589647 1.576535 -1.645907
C -1.745360 1.017767 1.330493
C -1.326734 2.350224 1.542377
C -1.965385 3.138920 2.510074
C -3.014855 2.609952 3.280363
C -3.430613 1.285705 3.073553
C -2.803019 0.490362 2.100723
C -2.875154 -1.922686 -0.671433
C -3.536532 -3.153367 -0.529704
C -3.102727 -4.083048 0.428229
C -1.999839 -3.781749 1.244789
H -0.451560 -2.325149 1.721803
H 0.027448 -0.390892 -2.672871
H -0.772433 0.418890 -4.911172
H -2.720846 1.995560 -5.050524
H -3.878611 2.736155 -2.953015
H -3.099815 1.905864 -0.728263
H -0.497925 2.754760 0.932327
H -1.634650 4.177701 2.665074
H -3.509083 3.230738 4.043828
H -4.252250 0.863006 3.672245
H -3.141579 -0.544179 1.944119
H -3.222304 -1.198306 -1.423232
H -4.396332 -3.386406 -1.176576
H -3.621476 -5.048211 0.535144
H -1.650728 -4.509279 1.993507
N 3.679696 -0.094318 0.257481
C 4.137584 0.027456 -1.148248
C 4.198841 1.056250 1.033959
C 4.194334 -1.348138 0.853745
H 3.790636 1.991207 0.604313
H 5.311758 1.075659 0.993616
H 3.877129 0.968038 2.088513
H 3.853040 -2.217410 0.263314
H 3.807946 -1.452934 1.884633
H 5.308710 -1.339446 0.877477
H 3.713923 0.959013 -1.570924
H 3.766744 -0.834053 -1.733383
H 5.251151 0.056921 -1.193097
C 1.399583 -1.825862 -0.428838
O 1.458174 -2.887924 -0.939591
S 1.490263 2.293501 -0.525971
H 1.047561 2.115199 -1.802670
