30

Ir 0.075667 -0.275372 -0.210179
H -0.021819 -0.776667 -1.828953
H 0.037378 0.205788 -1.975819
N 2.126756 -0.297483 -0.296273
C 4.325571 0.493985 -0.618207
O 4.288948 -0.799283 0.069831
C 2.997370 -1.087111 0.248394
C 2.871563 0.727615 -1.062861
H 2.700161 0.546177 -2.145167
H 2.458881 1.724546 -0.812659
H 5.054709 0.416981 -1.446440
H 4.683263 1.245810 0.115756
H 2.748301 -1.978729 0.841492
N -1.996418 -0.117198 -0.179789
C -4.794549 0.162406 -0.283259
C -3.950709 1.250327 -0.547649
C -2.564747 1.080921 -0.486643
C -2.811805 -1.173023 0.082279
C -4.204614 -1.067958 0.041553
H -5.888727 0.270322 -0.327814
H -4.353779 2.241517 -0.800815
H -1.845846 1.899421 -0.654013
H -2.310482 -2.118669 0.329890
H -4.813047 -1.956629 0.262808
C 0.067022 -1.636694 1.051848
N 0.064855 -2.647052 1.766373
H 0.092000 -2.559612 2.791980
N 0.238029 1.896892 0.092125
C 0.390431 2.675155 1.014311
O 0.541918 3.504726 1.869901
