40

Ir -0.077231 -0.014159 -0.237610
H -0.242582 -0.025537 -1.930601
H -0.128701 -0.999731 -1.733399
N -2.260724 -0.158163 -0.219693
C -5.066640 -0.296907 -0.266394
C -4.397926 0.856167 -0.704354
C -3.000273 0.885933 -0.667075
C -2.901617 -1.270205 0.212320
C -4.298784 -1.372560 0.199484
H -6.165944 -0.352856 -0.287291
H -4.947459 1.732741 -1.077088
H -2.427611 1.762180 -1.004658
H -2.234534 -2.070931 0.591417
H -4.769315 -2.298742 0.560583
C 1.921477 0.116544 -0.214541
C 4.170798 0.205844 -0.888766
C 4.092417 -0.181090 0.591656
H 4.760897 -0.513402 -1.493797
H 4.770970 0.410458 1.240090
C 2.235077 -0.228338 2.251267
H 2.830071 0.356480 2.983066
H 1.169482 0.044499 2.348999
H 2.344527 -1.313735 2.466555
C 2.409668 0.440266 -2.660997
H 2.471988 -0.485233 -3.275386
H 1.380533 0.839012 -2.716943
H 3.102783 1.193083 -3.094219
N 2.761140 0.198452 -1.282490
N 2.688388 0.076221 0.910864
H 4.309948 -1.262800 0.750956
H 4.606705 1.220871 -1.047075
C -0.200682 1.594461 0.725211
N -0.286559 2.581939 1.444131
C -0.477697 3.987088 1.215211
H 0.369124 4.562696 1.645320
H -1.395751 4.337382 1.732883
H -0.561996 4.243218 0.133951
N 0.313032 -2.115809 0.559193
O 1.468635 -2.563829 0.462077
O -0.558411 -2.785063 1.145483
