44

Ir -0.281470 0.165448 -0.332455
H -0.416305 0.394587 -2.033290
H -0.250736 -0.543062 -2.045752
N -2.386704 -0.325667 -0.237051
C -3.344793 0.618379 -0.397745
C -4.702794 0.272635 -0.374082
N -5.129578 -0.986946 -0.194669
C -4.168530 -1.910482 -0.032133
C -2.801316 -1.601286 -0.049669
H -3.002356 1.653551 -0.540895
H -5.468323 1.056565 -0.508692
H -4.487718 -2.955766 0.121647
H -2.002061 -2.347918 0.088430
P 1.972720 0.607352 -0.334267
C 2.434640 2.405542 -0.381066
C 2.910558 -0.087743 -1.777332
C 2.767722 -1.592830 -2.009701
C 2.890639 -0.027615 1.143865
C 2.254641 0.333312 2.487143
C 1.799264 3.206248 -1.518507
H 2.127172 2.820543 0.601416
H 3.544958 2.449102 -0.417787
H 2.556823 0.482561 -2.662885
H 3.973516 0.198834 -1.616815
H 2.945594 -1.132514 1.038953
H 3.929294 0.360941 1.059768
H 1.711103 -1.872981 -2.189182
H 3.359567 -1.898072 -2.896223
H 3.116062 -2.193642 -1.145706
H 2.190577 1.430230 2.645507
H 1.229012 -0.080550 2.552580
H 2.850310 -0.092889 3.319041
H 2.094644 2.819942 -2.515356
H 0.693979 3.170171 -1.453467
H 2.113571 4.268520 -1.469591
C -0.566340 1.728673 0.648478
N -0.784292 2.799907 1.195865
C -0.794735 3.296949 2.543593
H -1.792850 3.715869 2.789074
H -0.065030 4.127628 2.646770
H -0.545826 2.511461 3.290894
N 0.153454 -1.871265 0.233965
C 0.912443 -2.705255 0.652419
S 1.947428 -3.820268 1.209764
