39

Ir 0.218716 0.047424 -0.311585
H 0.081994 -0.341025 -1.950560
H 0.249844 -1.254484 -1.627160
P -1.995840 -0.204099 0.176360
C -2.403066 0.405653 1.881454
C -2.436934 -2.002739 0.247602
C -2.543894 -2.709103 -1.104227
C -3.285712 0.573300 -0.906486
C -3.070548 2.061840 -1.186286
C -1.286757 0.145814 2.902946
H -2.613569 1.492536 1.792960
H -3.358166 -0.085001 2.170854
H -1.590164 -2.417955 0.837109
H -3.375416 -2.100119 0.834630
H -3.268535 -0.002193 -1.855728
H -4.273299 0.381536 -0.431278
H -1.620230 -2.570604 -1.702067
H -2.681145 -3.799696 -0.957170
H -3.402251 -2.348826 -1.708150
H -3.044527 2.663430 -0.255044
H -2.107381 2.223373 -1.709780
H -3.884885 2.463387 -1.823135
H -0.803312 -0.839393 2.743888
H -0.484252 0.899587 2.785629
H -1.679060 0.209722 3.938005
N 2.341585 0.013327 -0.319065
C 4.443248 -0.900028 0.247480
O 4.487359 0.557439 0.088006
C 3.226532 0.937753 -0.152161
C 3.026941 -1.292343 -0.213410
H 2.438235 -1.912640 0.496381
H 3.001387 -1.783475 -1.209524
H 4.631722 -1.116762 1.319730
H 5.262139 -1.331563 -0.358990
H 3.020239 2.017777 -0.179420
C 0.158645 1.858757 0.048515
N 0.169127 3.052522 0.375707
H 0.059174 3.791387 -0.332934
F 0.454818 -1.691452 0.981697
