40

Ir -0.043145 0.208060 -0.013739
H -0.058005 1.853342 -0.579955
H -0.029284 1.376301 -1.407516
C -2.120199 0.124588 -0.069793
C -4.338859 0.645048 -0.206715
C -4.241198 -0.711673 -0.053640
H -5.213259 1.293860 -0.312096
H -5.015505 -1.482304 0.002898
C -2.358706 -2.354965 0.213505
H -1.704641 -2.621535 -0.639957
H -1.756018 -2.395904 1.140754
H -3.205305 -3.061873 0.288371
C -2.706932 2.545732 -0.329775
H -1.901693 2.793599 0.388010
H -2.350106 2.781634 -1.352812
H -3.604846 3.152165 -0.108766
N -3.040212 1.137478 -0.204857
N -2.889259 -1.008958 0.031709
C 2.033579 0.139359 0.000832
C 4.183077 -0.798896 -0.156536
C 4.311185 0.730485 -0.152625
H 4.827447 -1.294594 0.599581
H 4.878011 1.121283 -1.023685
C 2.611564 2.574349 -0.197269
H 2.693353 3.014801 -1.215880
H 1.584284 2.728903 0.181174
H 3.320096 3.111477 0.470453
C 2.255191 -2.347802 0.264111
H 2.919350 -2.927706 0.939040
H 1.235603 -2.308192 0.685682
H 2.190285 -2.850695 -0.724803
N 2.763974 -0.997731 0.144587
N 2.911431 1.162763 -0.191227
H 4.804476 1.118457 0.769524
H 4.426399 -1.243032 -1.149551
C -0.083095 -0.122348 1.833676
N -0.109594 -0.325712 3.051856
H -0.096004 -1.286139 3.424758
C 0.022087 -1.164224 -1.569561
N 0.073858 -2.032471 -2.371294
