34

Ir -0.222962 -0.228389 -0.368768
H -0.428175 -0.559555 -2.025743
H -0.206397 0.402680 -2.079271
N 1.821570 -0.587738 -0.456637
C 4.614350 -0.882848 -0.590558
C 3.793836 -1.304848 -1.648325
C 2.410706 -1.143982 -1.546674
C 2.612248 -0.195217 0.574777
C 4.004444 -0.320236 0.537067
H 5.707940 -0.989355 -0.648087
H 4.214933 -1.756024 -2.558093
H 1.731798 -1.460632 -2.350044
H 2.101161 0.250802 1.437713
H 4.589536 0.043201 1.393292
N -2.252710 0.234135 -0.265363
C -4.986389 0.893290 -0.211871
C -4.002177 1.886590 -0.106228
C -2.651789 1.527331 -0.133843
C -3.203423 -0.732062 -0.362842
C -4.570098 -0.439787 -0.338955
H -6.055842 1.151947 -0.194290
H -4.267143 2.948431 0.000285
H -1.827965 2.254390 -0.044810
H -2.830188 -1.760820 -0.460370
H -5.294413 -1.262806 -0.422243
C -0.447872 -1.692712 0.781085
N -0.628953 -2.719047 1.418005
C -0.608616 -3.119832 2.795745
H 0.147033 -3.918869 2.948329
H -1.591139 -3.550642 3.081655
H -0.378293 -2.277865 3.485836
N 0.287603 1.842704 0.135502
C 1.175858 2.526268 0.576764
S 2.382259 3.416812 1.190849
