28

Ir 0.177235 0.049890 -0.182146
H 0.161859 0.054915 -1.873773
H 0.090105 -0.922340 -1.759895
N -1.881617 -0.011219 -0.112843
C -4.094616 0.331898 -0.215250
C -2.859742 0.883939 -0.498176
N -3.831072 -0.905431 0.343854
C -2.486259 -1.089521 0.397805
H -4.525146 -1.578447 0.668699
H -5.110894 0.708957 -0.361477
H -2.605672 1.851442 -0.941517
H -1.906612 -1.944143 0.785659
N 2.303006 -0.273316 -0.024736
C 2.620664 -1.561369 -0.705437
C 3.132362 0.816821 -0.589159
C 2.578968 -0.440426 1.432292
H 2.893946 0.939820 -1.661466
H 4.213953 0.579653 -0.471309
H 2.903177 1.764239 -0.068297
H 1.885647 -1.219970 1.803596
H 2.377442 0.512293 1.953880
H 3.639798 -0.739774 1.588532
H 2.461181 -1.448397 -1.793186
H 1.923219 -2.321584 -0.303595
H 3.679292 -1.843080 -0.510982
C 0.258134 1.763164 0.490303
O 0.307917 2.887885 0.850091
F 0.086555 -1.915052 0.761272
