36

Ir -0.268154 -0.096240 -0.298140
H -0.192656 -0.740749 -1.943634
H -0.118666 -1.543151 -1.502767
N -2.456180 -0.318148 -0.346491
C -3.021866 0.028693 0.988523
C -3.047692 0.574293 -1.379284
C -2.829761 -1.724540 -0.665579
H -2.804040 1.626762 -1.150213
H -4.152577 0.440717 -1.404909
H -2.622780 0.325902 -2.368818
H -2.376349 -2.383334 0.097282
H -2.454345 -1.984582 -1.672060
H -3.936880 -1.832233 -0.651787
H -2.792617 1.083902 1.219562
H -2.553622 -0.635255 1.738258
H -4.125412 -0.117573 0.981914
N 1.794634 0.061776 -0.265335
C 4.613846 0.143654 -0.163787
C 3.938010 -1.040065 -0.482097
C 2.539951 -1.050207 -0.511733
C 2.454295 1.211805 0.037588
C 3.846879 1.288423 0.101124
H 5.712921 0.176353 -0.125241
H 4.479356 -1.970948 -0.702641
H 1.982799 -1.963676 -0.748289
H 1.825290 2.090871 0.225452
H 4.315915 2.249400 0.356357
C -0.506982 1.732950 -0.053174
N -0.709771 2.932624 0.127002
C -0.857554 3.744154 1.309569
H -1.862701 4.216531 1.322591
H -0.118912 4.573222 1.297965
H -0.726597 3.165441 2.251622
N -0.046830 -1.774919 1.161756
O 1.087583 -2.152369 1.491000
O -1.047336 -2.239055 1.747841
