28

Ir -0.288238 0.095339 -0.185975
H -0.373134 0.480338 -1.870925
H -0.388080 -0.527591 -1.851641
N -2.416204 0.008669 -0.145007
C -4.659371 -0.724336 0.068663
O -4.554036 0.693555 -0.289948
C -3.253491 0.967981 -0.368477
C -3.195471 -1.212923 0.150299
H -2.936521 -1.996620 -0.588467
H -2.899328 -1.605282 1.142158
H -5.258925 -1.222348 -0.718168
H -5.206260 -0.782167 1.030406
H -2.970410 2.001249 -0.618142
P 1.967630 0.006419 -0.115517
C 5.081614 -0.129541 -0.033735
C 4.349904 -1.319923 0.135489
C 2.951725 -1.398078 0.123820
C 3.083438 1.317306 -0.294708
C 4.470592 1.120578 -0.234782
H 6.180486 -0.178880 -0.003969
H 4.909649 -2.257013 0.294046
H 2.425202 -2.352561 0.280893
H 2.669103 2.324233 -0.458056
H 5.119056 2.004635 -0.354980
C -0.312836 1.693069 0.843846
O -0.357829 2.663710 1.496890
C -0.268390 -1.870226 0.468517
N -0.266978 -2.986805 0.853658
