49

Ir 1.279989 -0.234478 0.248443
H 1.275994 -0.266341 1.933807
H 1.324643 0.720086 1.797231
P -0.979845 0.017620 0.049402
C -1.618245 -2.334101 1.437231
C -2.050800 -1.428829 0.446441
C -1.486641 0.504166 -1.657058
C -0.846848 -0.100685 -2.757808
C -1.249702 0.212730 -4.063670
C -2.285832 1.135839 -4.282435
C -2.918429 1.747879 -3.188940
C -2.521557 1.435489 -1.878805
C -1.621948 1.387478 1.101509
C -0.885516 2.594724 1.094626
C -1.337816 3.677275 1.862535
C -2.504348 3.564220 2.639828
C -3.226519 2.360753 2.650170
C -2.789548 1.269597 1.879835
C -3.292996 -1.634276 -0.189199
C -4.094608 -2.728636 0.171063
C -3.663954 -3.622704 1.164829
C -2.425240 -3.423820 1.796215
H -0.635032 -2.182631 1.909994
H -0.018985 -0.804109 -2.581792
H -0.742428 -0.261662 -4.917789
H -2.595776 1.385033 -5.309149
H -3.724332 2.479619 -3.354009
H -3.013436 1.925609 -1.024889
H 0.036667 2.647584 0.481311
H -0.768726 4.620087 1.857966
H -2.849910 4.417616 3.244059
H -4.136602 2.266046 3.262618
H -3.357666 0.326929 1.889672
H -3.631080 -0.940940 -0.974345
H -5.060419 -2.886112 -0.333369
H -4.292768 -4.482876 1.442137
H -2.078512 -4.128137 2.567896
N 3.407001 -0.078037 0.206738
C 5.633815 -0.309542 0.326637
C 4.425163 -0.929646 0.581838
N 5.311169 0.926142 -0.206314
C 3.959126 1.039706 -0.269000
H 5.972787 1.641455 -0.508403
H 6.667252 -0.636424 0.474650
H 4.219883 -1.920079 1.000072
H 3.338633 1.875273 -0.636730
C 1.259509 -1.945894 -0.460451
O 1.250675 -3.066060 -0.824242
F 1.381487 1.750657 -0.659275
