42

Ir -0.126003 0.143146 -0.234903
H -0.153502 -0.233553 -2.063260
H -0.244750 -1.058381 -1.902198
N -2.270678 0.222313 -0.246807
C -2.979241 1.241326 0.300202
C -4.379076 1.220684 0.322116
N -5.103810 0.214770 -0.193784
C -4.394337 -0.791490 -0.726584
C -2.993248 -0.809031 -0.754658
H -2.405005 2.076484 0.725506
H -4.927794 2.061972 0.780114
H -4.954865 -1.640624 -1.154499
H -2.426698 -1.663345 -1.152389
P 2.157875 -0.070198 -0.097396
C 3.124228 1.515946 -0.201826
C 2.948442 -1.090219 -1.438895
C 2.647424 -2.589880 -1.420973
C 2.758911 -0.823801 1.483759
C 2.228298 -0.122957 2.735878
C 2.926653 2.295666 -1.503339
H 2.798868 2.121041 0.669667
H 4.193800 1.260677 -0.038909
H 2.603863 -0.631143 -2.389717
H 4.042776 -0.900446 -1.372589
H 2.391668 -1.870544 1.456425
H 3.870447 -0.840830 1.446329
H 1.558204 -2.792557 -1.387230
H 3.073960 -3.076006 -2.322007
H 3.089603 -3.084845 -0.533552
H 2.529616 0.943394 2.787595
H 1.121011 -0.165764 2.753861
H 2.609324 -0.623490 3.648882
H 3.332274 1.749725 -2.379117
H 1.849820 2.479526 -1.695110
H 3.442838 3.276354 -1.458160
C 0.026461 1.875519 0.360820
N 0.116969 2.979271 0.885082
C 0.278757 4.331914 0.429034
H 0.118525 4.439587 -0.666842
H 1.302738 4.692843 0.666657
H -0.427920 5.004081 0.958155
Br -0.383192 -2.369429 0.672749
