34

Ir -0.163445 -0.162789 -0.275531
H -0.120020 -0.482478 -1.921831
H -0.040777 -1.429054 -1.594312
P -2.400629 -0.421105 -0.001433
C -2.795426 -0.409808 1.791045
C -2.947659 -2.087036 -0.542250
C -3.560873 0.771875 -0.780518
H -2.063192 -1.116919 2.231581
H -3.837308 -0.728023 1.996934
H -2.612121 0.602080 2.199917
H -2.251815 -2.784544 -0.033993
H -2.817616 -2.183120 -1.637409
H -3.998998 -2.296883 -0.259930
H -3.289781 1.794218 -0.451940
H -4.613474 0.554336 -0.508294
H -3.441845 0.722852 -1.880411
N 1.978053 -0.197341 -0.117949
C 4.751229 -0.415718 0.187933
C 3.884782 -1.329638 0.808654
C 2.503698 -1.194802 0.636830
C 2.804074 0.692944 -0.714406
C 4.195369 0.614072 -0.585631
H 5.842101 -0.503443 0.306162
H 4.270958 -2.151858 1.428760
H 1.737005 -1.860358 1.084366
H 2.313245 1.484329 -1.300342
H 4.828276 1.358378 -1.090424
C -0.246727 1.681932 -0.030237
N -0.277349 2.909124 -0.028113
C -0.332743 3.907465 1.004183
H -1.226116 4.553413 0.866442
H 0.552672 4.575333 0.940766
H -0.368166 3.471640 2.028517
F -0.189731 -1.899865 1.022406
