40

Ir 0.278314 0.031565 -0.195430
H 0.330049 0.076483 -1.947617
H 0.355593 -0.861890 -1.791592
P -2.000931 0.002298 -0.076157
C -2.689810 0.492271 1.574906
C -2.820831 -1.628679 -0.404898
C -2.428070 -2.301833 -1.719649
C -2.885577 1.138799 -1.255678
C -2.443268 2.601492 -1.203142
C -2.131517 -0.307201 2.753646
H -2.438493 1.566800 1.694181
H -3.797238 0.414501 1.504297
H -2.523296 -2.273213 0.447254
H -3.917121 -1.452292 -0.339455
H -2.699646 0.716065 -2.266069
H -3.975192 1.033644 -1.058025
H -1.344854 -2.533901 -1.718993
H -2.980081 -3.255744 -1.844200
H -2.652079 -1.671331 -2.605005
H -2.634209 3.056702 -0.209854
H -1.356134 2.684488 -1.403353
H -2.988691 3.204569 -1.957580
H -2.362528 -1.388092 2.673692
H -1.028985 -0.212680 2.798256
H -2.558157 0.064061 3.707669
N 2.441269 -0.001171 -0.175505
C 4.571787 -0.674889 0.053716
C 3.252750 -1.071705 0.149408
N 4.538937 0.653153 -0.332452
C 3.236900 1.028250 -0.462232
H 5.346722 1.255504 -0.490958
H 5.509127 -1.211926 0.226640
H 2.804483 -2.030807 0.435422
H 2.897426 2.028138 -0.750299
C 0.288362 1.660492 0.740327
N 0.285501 2.599133 1.550081
H 0.289573 3.565530 1.190334
C 0.281406 -1.901194 0.555769
C 0.291475 -3.033323 1.064020
H 0.305916 -4.012266 1.523707
