29

Ir 0.001385 -0.201616 -0.246064
H 0.004334 -0.632356 -1.913900
H -0.009743 -1.534130 -1.431856
N -2.075531 -0.184106 -0.254529
C -4.208861 0.370020 -0.698248
C -2.890153 0.703102 -0.935581
N -4.169627 -0.730377 0.137121
C -2.871433 -1.042547 0.391591
H -4.973828 -1.233631 0.511664
H -5.146170 0.813243 -1.046513
H -2.461781 1.510880 -1.536034
H -2.513990 -1.857037 1.034123
N 2.073787 -0.252360 -0.231248
C 4.202707 -0.864262 0.143948
C 2.884152 -1.188893 0.389863
N 4.173105 0.281061 -0.629830
C 2.873961 0.626572 -0.840535
H 4.981790 0.788459 -0.988117
H 5.137095 -1.342478 0.451618
H 2.443811 -2.006938 0.970209
H 2.533811 1.496826 -1.410197
C 0.035526 1.648778 0.155108
N 0.074615 2.849659 0.412679
C 0.075333 3.568080 1.663238
H -0.805584 4.242856 1.713938
H 0.974867 4.216345 1.729969
H 0.057070 2.894493 2.549510
C -0.063176 -1.735563 1.147451
N -0.155871 -2.584424 1.967452
