40

Ir 0.103907 -0.152851 -0.303486
H 0.104355 -0.388239 -2.048480
H 0.135226 -1.275373 -1.751830
P -2.210512 -0.156052 -0.191196
C -5.340237 -0.161234 0.091944
C -4.638006 -1.359870 0.319972
C -3.246728 -1.484282 0.229785
C -3.312008 1.168526 -0.418124
C -4.698233 1.040723 -0.255792
H -6.436383 -0.164057 0.192220
H -5.218828 -2.257372 0.593587
H -2.741722 -2.439703 0.443686
H -2.876006 2.140817 -0.697177
H -5.322708 1.936582 -0.414103
C 2.145146 -0.193156 -0.084590
C 4.438665 -0.437854 -0.490727
C 4.224339 -0.083017 0.984799
H 4.741055 -1.503207 -0.626639
H 4.555053 0.956016 1.222497
C 2.141327 -0.024064 2.412889
H 2.004666 1.051379 2.662196
H 1.154557 -0.523280 2.401487
H 2.779181 -0.500010 3.184409
C 2.888292 -0.366556 -2.472997
H 2.779022 -1.433511 -2.773848
H 1.972216 0.177909 -2.768661
H 3.750809 0.065575 -3.019491
N 3.103534 -0.213573 -1.053606
N 2.770159 -0.194583 1.117700
H 4.743903 -0.772141 1.681062
H 5.196964 0.198305 -0.991430
C 0.153523 1.642814 0.311344
N 0.217037 2.718294 0.888518
C 0.241625 4.097769 0.489813
H 1.154321 4.593339 0.882774
H -0.626025 4.635603 0.927060
H 0.217470 4.228643 -0.615790
C 0.055268 -1.968140 0.705183
C 0.022866 -3.014678 1.366821
H -0.000464 -3.929794 1.942603
