39

Ir 0.030142 0.283536 0.238532
H 0.114842 0.260876 2.054886
H 0.114584 -0.602923 1.976709
P 2.377254 0.194270 0.016759
C 2.946811 0.579277 -1.704308
C 3.203738 -1.417742 0.404368
C 2.916903 -1.986793 1.793854
C 3.326028 1.394337 1.073123
C 2.857241 2.848586 1.017313
C 2.270833 -0.257677 -2.792479
H 2.734077 1.659028 -1.855761
H 4.052790 0.461359 -1.716000
H 2.844524 -2.125231 -0.370667
H 4.290629 -1.245398 0.241336
H 3.247703 1.002670 2.109612
H 4.394230 1.298639 0.777637
H 1.848017 -2.266919 1.876150
H 3.515973 -2.905166 1.958530
H 3.167293 -1.278388 2.610134
H 2.897863 3.265458 -0.009106
H 1.811816 2.944075 1.370912
H 3.497404 3.485674 1.660519
H 2.470521 -1.340564 -2.670648
H 1.170755 -0.128595 -2.760767
H 2.634626 0.047553 -3.794318
P -2.287835 0.245338 0.168166
C -5.415262 0.221249 0.037306
C -4.735143 -1.004366 0.163862
C -3.342257 -1.129644 0.231072
C -3.358233 1.603242 0.021449
C -4.751137 1.458797 -0.033300
H -6.514718 0.210563 -0.011548
H -5.334549 -1.929446 0.208265
H -2.855283 -2.115052 0.303841
H -2.904242 2.604982 -0.039912
H -5.360723 2.372274 -0.136636
C 0.043186 1.935068 -0.576189
O 0.048772 2.980231 -1.114398
Br -0.047622 -2.325992 -0.395006
