36

Ir -0.146441 -0.050028 -0.297267
H -0.252205 0.344814 -1.928445
H -0.242810 -0.644361 -2.023212
C -2.156825 -0.355705 -0.067679
C -4.416497 -0.368518 -0.316493
C -4.111036 -1.132479 0.779924
H -5.378018 -0.130057 -0.780646
H -4.756174 -1.686731 1.468049
C -1.977338 -1.762942 1.985825
H -2.583815 -2.592199 2.395131
H -1.031262 -2.142323 1.531739
H -1.754089 -1.031166 2.788236
C -3.070404 0.927915 -2.005831
H -4.056529 1.348515 -2.275897
H -2.353588 1.746816 -1.807698
H -2.681701 0.326490 -2.852913
N -3.209988 0.105847 -0.815705
N -2.732493 -1.111121 0.916656
P 2.164391 -0.069080 -0.216474
C 5.253579 -0.451391 0.117980
C 4.761645 0.837861 -0.149467
C 3.401958 1.141951 -0.320551
C 3.025216 -1.538034 0.118356
C 4.416406 -1.578593 0.245302
H 6.339900 -0.585618 0.234589
H 5.488813 1.663881 -0.230425
H 3.092369 2.178735 -0.526660
H 2.376847 -2.422199 0.230060
H 4.888040 -2.552982 0.460290
C -0.269095 1.512046 0.732495
N -0.358924 2.516273 1.416315
C -0.489644 3.930813 1.238896
H -0.553843 4.225788 0.166696
H 0.376893 4.456461 1.693244
H -1.397488 4.302527 1.759558
F 0.132307 -2.163619 0.117951
