32

Ir -0.169587 -0.142123 -0.313998
H -0.276501 0.212078 -1.940909
H -0.318726 -0.846813 -1.943342
N -2.287654 -0.306139 -0.048270
C -3.170298 0.659793 -0.398344
C -4.543666 0.480286 -0.190908
N -5.059095 -0.633363 0.353395
C -4.166348 -1.579908 0.693671
C -2.785710 -1.439723 0.505023
H -2.755821 1.575037 -0.845850
H -5.248156 1.278761 -0.482975
H -4.560026 -2.506027 1.147429
H -2.001054 -2.187371 0.757589
P 2.059516 -0.199673 -0.083122
C 5.148888 -0.447441 0.320004
C 4.335518 -1.555597 0.630632
C 2.944284 -1.576021 0.492445
C 3.265408 1.007729 -0.390070
C 4.628444 0.766293 -0.162668
H 6.236620 -0.534788 0.461976
H 4.825135 -2.468235 1.011700
H 2.324557 -2.446567 0.758125
H 2.931519 1.984847 -0.772290
H 5.336370 1.584334 -0.379751
C -0.211371 1.620427 0.399575
N -0.254768 2.732152 0.875780
C -0.330778 4.128240 0.601665
H -1.206071 4.575598 1.117510
H -0.415506 4.340690 -0.488064
H 0.571932 4.644693 0.990444
O -0.092732 -2.181536 0.394410
H -0.012562 -2.748426 -0.394680
