43

Ir 0.126230 0.176568 -0.107792
H 0.104757 1.269699 -1.407536
H 0.150541 0.477618 -1.952558
P -2.210923 -0.113204 -0.085152
C -2.768514 -1.022091 1.434381
C -2.774300 -1.208866 -1.467981
C -2.772396 -0.564875 -2.854498
C -3.342037 1.358344 -0.143208
C -3.042059 2.429673 0.907456
C -1.926543 -2.255274 1.771545
H -2.717758 -0.284189 2.263548
H -3.841815 -1.279812 1.294502
H -2.024546 -2.028539 -1.423621
H -3.776670 -1.609336 -1.202725
H -3.228711 1.780517 -1.164029
H -4.387707 0.986555 -0.064184
H -1.774628 -0.145009 -3.096162
H -3.007609 -1.321749 -3.630274
H -3.521163 0.248454 -2.951049
H -3.140338 2.042063 1.941749
H -2.008301 2.813475 0.799915
H -3.740232 3.285512 0.806613
H -1.887332 -2.976093 0.932730
H -0.880907 -1.956856 1.983098
H -2.335188 -2.770587 2.664742
C 2.183729 -0.001878 -0.124236
C 4.260618 -0.881624 0.133307
C 4.411195 0.370230 -0.404077
H 5.003304 -1.635793 0.410242
H 5.308934 0.922756 -0.696911
C 2.830820 2.199479 -1.110447
H 2.467966 2.100380 -2.154048
H 2.035785 2.682380 -0.512099
H 3.743605 2.823380 -1.097075
C 2.298165 -2.278810 0.895959
H 2.142911 -2.117521 1.982348
H 1.322628 -2.450270 0.382401
H 2.978024 -3.138137 0.744767
N 2.900187 -1.089219 0.297675
N 3.133012 0.894837 -0.545320
C 0.145601 1.080133 1.496909
O 0.158684 1.705838 2.496787
F -0.007664 -1.916583 -0.747619
