28

Ir -0.023025 0.119766 -0.228905
H -0.005012 0.170176 -1.921472
H 0.085399 -0.802567 -1.822682
P -2.248594 -0.261477 0.007306
C -2.590231 -0.673904 1.761499
C -2.746378 -1.781005 -0.891337
C -3.463434 1.035456 -0.456815
H -1.824729 -1.438305 2.007656
H -3.616222 -1.066560 1.910096
H -2.424623 0.222579 2.388950
H -2.012097 -2.544429 -0.563234
H -2.641967 -1.621567 -1.981754
H -3.781691 -2.091540 -0.645159
H -3.228527 1.958850 0.108288
H -4.502302 0.716150 -0.237103
H -3.361053 1.256344 -1.537077
N 2.108657 -0.013897 -0.108682
C 4.339882 0.217030 -0.111330
C 3.146273 0.831553 -0.441461
N 3.989179 -1.009688 0.424360
C 2.635169 -1.122592 0.414998
H 4.633618 -1.719268 0.773293
H 5.379937 0.541828 -0.209299
H 2.964961 1.814809 -0.886901
H 1.998823 -1.953785 0.765749
C -0.146393 1.822311 0.477409
O -0.257438 2.933314 0.857247
F 0.018075 -1.890784 0.642360
