36

Ir -0.009119 0.245599 -0.387444
H 0.249262 0.352339 -2.077336
H -0.103782 -0.548433 -2.050752
N -2.046217 1.015590 -0.610433
C -2.715968 1.083470 0.721172
C -2.012454 2.380147 -1.204656
C -2.861889 0.138325 -1.499443
H -1.425884 3.054961 -0.556499
H -3.048658 2.771271 -1.315855
H -1.525523 2.337408 -2.195539
H -2.955745 -0.868245 -1.055602
H -2.374078 0.061136 -2.487551
H -3.876339 0.576594 -1.623436
H -2.130117 1.735647 1.392248
H -2.782071 0.070865 1.158817
H -3.742564 1.496033 0.602789
N 1.906888 -0.530818 -0.182814
C 4.495781 -1.620166 -0.008951
C 3.360359 -2.425992 0.157336
C 2.087803 -1.855341 0.067530
C 3.005502 0.255081 -0.338860
C 4.304811 -0.253471 -0.258047
H 5.507864 -2.047199 0.055451
H 3.445291 -3.503374 0.360097
H 1.156381 -2.429200 0.198040
H 2.808837 1.318299 -0.532388
H 5.154903 0.430448 -0.394181
C 0.471538 1.751556 0.598700
N 0.836414 2.787134 1.146161
C 0.889699 3.255343 2.505419
H 0.293209 4.185926 2.611763
H 1.934489 3.514811 2.777255
H 0.511953 2.505775 3.235899
N -0.854762 -1.648916 0.269013
C -1.822906 -2.241734 0.667915
S -3.156575 -3.005649 1.182987
