33

Ir -0.136579 0.342407 -0.198459
H -0.128962 0.721529 -1.859682
H -0.166188 -0.243503 -1.910413
C -2.186184 0.297309 -0.098180
C -4.284727 -0.060333 0.695149
C -4.405520 0.405545 -0.586635
H -5.045455 -0.357159 1.422912
H -5.290720 0.596090 -1.200272
C -2.806289 1.129040 -2.380897
H -2.050438 1.933852 -2.307463
H -2.402501 0.320531 -3.022560
H -3.728832 1.530456 -2.838489
C -2.367612 -0.569043 2.244441
H -1.650128 -1.392975 2.044400
H -1.831133 0.261269 2.742009
H -3.192275 -0.921045 2.890701
N -2.928932 -0.113437 0.977914
N -3.116297 0.628155 -1.051739
P 2.184505 0.255915 -0.150288
C 5.314639 0.132972 -0.036513
C 4.682317 1.365599 0.206046
C 3.293053 1.550240 0.178903
C 3.206588 -1.122888 -0.401255
C 4.602569 -1.046617 -0.324627
H 6.413697 0.087997 0.004516
H 5.316377 2.240485 0.429199
H 2.860459 2.543307 0.379607
H 2.691977 -2.076707 -0.600793
H 5.178154 -1.972261 -0.495606
C -0.112502 1.740751 1.038311
N -0.080272 2.765408 1.716774
H -0.052880 2.757777 2.743741
Br -0.168904 -2.346573 0.125850
