32

Ir 0.000007 -0.289455 -0.421893
H 0.000026 -0.051221 -2.190187
H -0.000013 0.809317 -1.942121
P 2.301625 -0.300685 -0.281324
C 5.426298 -0.394240 -0.141398
C 4.717575 -1.608835 -0.124349
C 3.321063 -1.701714 -0.191095
C 3.403814 1.037447 -0.291129
C 4.791072 0.858645 -0.224136
H 6.525047 -0.424930 -0.087212
H 5.293881 -2.547203 -0.060025
H 2.828574 -2.686537 -0.183671
H 2.958496 2.044407 -0.326177
H 5.422627 1.763008 -0.231263
P -2.301607 -0.300739 -0.281341
C -5.426273 -0.394327 -0.141390
C -4.791056 0.858572 -0.223989
C -3.403800 1.037391 -0.290975
C -3.321030 -1.701786 -0.191260
C -4.717543 -1.608921 -0.124489
H -6.525021 -0.425030 -0.087196
H -5.422617 1.762931 -0.231002
H -2.958483 2.044355 -0.325915
H -2.828533 -2.686606 -0.183949
H -5.293844 -2.547300 -0.060266
C 0.000014 -2.028572 0.291908
N 0.000021 -3.168959 0.701094
C 0.000126 -3.942080 1.904873
H 0.892352 -4.601199 1.933170
H -0.892291 -4.600926 1.933497
H 0.000385 -3.301220 2.813057
I -0.000058 2.386241 0.636451
