29

Ir 0.305665 -0.373378 -0.165557
H 0.413515 -0.852991 -1.794109
H 0.353425 0.132953 -1.897278
N 2.443952 -0.131155 -0.112215
C 3.274873 -1.155489 -0.420734
C 4.664567 -0.976296 -0.404722
N 5.241273 0.193232 -0.089354
C 4.403984 1.196084 0.216158
C 3.008474 1.055580 0.211630
H 2.809017 -2.117361 -0.678761
H 5.326698 -1.821774 -0.659201
H 4.849778 2.169744 0.482459
H 2.304605 1.868535 0.455273
P -1.954684 -0.530664 -0.137698
C -5.055384 -0.794851 -0.112153
C -4.284737 -1.968543 -0.038521
C -2.883207 -1.987561 -0.043457
C -3.110783 0.752892 -0.216470
C -4.487329 0.489380 -0.195134
H -6.152011 -0.884616 -0.101596
H -4.810226 -2.935852 0.027312
H -2.338182 -2.942143 0.019142
H -2.747120 1.793671 -0.265392
H -5.165211 1.358022 -0.243525
C 0.414402 -1.872737 0.956156
O 0.486875 -2.852630 1.593777
N 0.163537 1.729789 0.257729
C -0.465584 2.757277 0.277702
S -1.298263 4.140337 0.308936
