33

Ir 0.000013 0.132331 0.199590
H 0.000039 0.020177 2.030190
H 0.000057 -0.840857 1.985181
P 2.335331 -0.019432 0.018413
C 2.919595 -0.494033 -1.659542
C 3.106070 -1.283284 1.110421
C 3.285752 1.517688 0.383814
H 2.452225 -1.467402 -1.904963
H 4.024708 -0.578908 -1.696088
H 2.572474 0.263925 -2.387865
H 2.613545 -2.249871 0.883467
H 2.911607 -1.019826 2.168376
H 4.198751 -1.355982 0.937059
H 2.937849 2.325288 -0.289797
H 4.375965 1.365194 0.250152
H 3.079291 1.829258 1.426312
P -2.335292 -0.019523 0.018435
C -3.105996 -1.283242 1.110621
C -2.919577 -0.494358 -1.659446
C -3.285700 1.517653 0.383622
H -2.613311 -2.249809 0.883933
H -4.198643 -1.356133 0.937129
H -2.911715 -1.019525 2.168546
H -2.452365 -1.467853 -1.904662
H -2.572297 0.263399 -2.387904
H -4.024702 -0.579045 -1.696012
H -3.078751 1.829714 1.425875
H -4.375962 1.364995 0.250555
H -2.938201 2.324981 -0.290527
C -0.000146 1.899683 -0.326853
O -0.000346 3.013891 -0.710370
S 0.000042 -2.328115 -0.454757
H -0.000037 -2.148794 -1.806829
