57

Ir 1.128827 0.269752 -0.039972
H 0.979611 1.708051 -1.115643
H 1.034132 1.070994 -1.751473
P -1.224296 0.036782 -0.032518
C -1.660810 2.439105 1.349560
C -2.137346 1.126013 1.152915
C -1.824449 -1.654659 0.394400
C -1.082877 -2.407726 1.326460
C -1.531347 -3.675750 1.721253
C -2.712381 -4.208333 1.177172
C -3.445861 -3.467231 0.237064
C -3.006034 -2.192002 -0.154051
C -2.046662 0.393345 -1.650024
C -1.540785 -0.246995 -2.803573
C -2.134729 -0.009443 -4.051256
C -3.225154 0.870517 -4.164681
C -3.724699 1.511753 -3.021011
C -3.141010 1.273738 -1.765050
C -3.295154 0.702035 1.836648
C -3.967215 1.582609 2.699580
C -3.494687 2.891902 2.882656
C -2.340596 3.318444 2.204884
H -0.738585 2.756533 0.837448
H -0.141297 -1.991619 1.717502
H -0.946677 -4.259093 2.449221
H -3.057706 -5.208863 1.480662
H -4.366385 -3.884507 -0.199747
H -3.580223 -1.615995 -0.896028
H -0.681190 -0.932169 -2.710946
H -1.737661 -0.515188 -4.945131
H -3.685006 1.057579 -5.147558
H -4.576999 2.204151 -3.102068
H -3.539913 1.778263 -0.872342
H -3.670951 -0.323039 1.700182
H -4.865755 1.239327 3.235311
H -4.022417 3.579336 3.561748
H -1.958958 4.340585 2.351789
C 3.189413 0.189760 -0.078443
C 5.396381 0.577171 -0.483532
C 5.306254 -0.568664 0.260443
H 6.265727 1.103368 -0.888412
H 6.083901 -1.239006 0.637793
C 3.424368 -1.909446 1.262913
H 2.957201 -1.545772 2.198490
H 2.656484 -2.426812 0.653886
H 4.254901 -2.598039 1.504875
C 3.750392 2.229738 -1.416606
H 3.305501 1.972152 -2.398387
H 3.010550 2.819210 -0.841967
H 4.663312 2.832561 -1.574766
N 4.096795 1.030159 -0.673797
N 3.957891 -0.787526 0.498939
C 1.189823 0.685887 1.785630
O 1.260068 0.823158 2.952768
C 1.180723 -1.506212 -1.110332
C 1.223528 -2.605924 -1.682578
H 1.245284 -3.566142 -2.179588
