35

Ir -0.373990 0.130628 0.181687
H -0.412561 -0.137542 2.039448
H -0.473364 -0.974414 1.970938
As 2.014797 0.103346 0.063780
C 2.765201 -0.554911 -1.615050
C 2.922815 -0.949984 1.435994
C 2.876127 1.854892 0.235885
H 2.390023 -1.584327 -1.759710
H 3.871799 -0.542039 -1.572291
H 2.406864 0.095537 -2.435048
H 2.537051 -1.981462 1.343246
H 2.669404 -0.537280 2.431166
H 4.019152 -0.922381 1.282273
H 2.490900 2.516734 -0.562575
H 3.975514 1.754117 0.149459
H 2.613594 2.290404 1.218659
N -2.635728 0.136387 0.140933
C -3.172112 1.381224 0.739239
C -3.047351 0.045181 -1.285652
C -3.187168 -1.025981 0.881919
H -2.648619 0.915321 -1.838324
H -4.159067 0.030642 -1.363516
H -2.626945 -0.888112 -1.703755
H -2.904684 -0.952021 1.948633
H -2.774547 -1.952363 0.443267
H -4.297807 -1.036633 0.803434
H -2.803394 2.256432 0.175443
H -2.830923 1.467059 1.787726
H -4.286073 1.370883 0.713447
C -0.355475 1.848440 -0.474448
N -0.361523 2.877447 -1.164515
H -0.391447 3.801804 -0.713260
N -0.298087 -1.988608 -0.403388
O -1.259532 -2.548695 -0.962666
O 0.784429 -2.604919 -0.283818
