34

Ir 0.000036 0.056472 0.150051
H 0.000378 -0.232535 2.008964
H 0.000275 -1.073945 2.046967
N 2.188535 0.032776 0.122294
C 2.638917 -0.019809 -1.296489
C 2.745809 1.248595 0.772786
C 2.728239 -1.160527 0.830285
H 2.394518 2.152186 0.244647
H 3.858825 1.212194 0.756490
H 2.391690 1.297132 1.818533
H 2.320539 -2.068178 0.347296
H 2.408754 -1.134002 1.888280
H 3.840085 -1.156200 0.782236
H 2.263631 0.870712 -1.831440
H 2.219423 -0.931362 -1.762347
H 3.751930 -0.041318 -1.342925
N -2.188496 0.032635 0.122349
C -2.638929 -0.020318 -1.296410
C -2.728058 -1.160540 0.830666
C -2.745832 1.248549 0.772597
H -2.320516 -2.068277 0.347721
H -3.839914 -1.156184 0.782879
H -2.408316 -1.133850 1.888582
H -2.395170 2.152013 0.243822
H -2.391107 1.297732 1.818105
H -3.858843 1.211748 0.756950
H -2.219211 -0.931867 -1.762091
H -2.263893 0.870205 -1.831524
H -3.751938 -0.042122 -1.342800
C -0.000110 1.800424 -0.396590
N -0.000515 2.964328 -0.832333
H -0.000644 3.150064 -1.844722
S 0.000002 -2.268229 -0.812623
H -0.000150 -3.127235 0.247157
