38

Ir -0.214396 -0.222760 0.097647
H -0.280146 -1.480176 1.364952
H -0.215892 -0.742408 1.900953
P -2.560780 -0.045726 0.113313
C -3.177597 1.338112 -0.927690
C -3.292519 0.296023 1.765530
C -3.512164 -1.501840 -0.498870
H -2.667455 2.257828 -0.579839
H -4.278412 1.450767 -0.857356
H -2.884002 1.148499 -1.978459
H -2.797742 1.205882 2.158977
H -3.067865 -0.550357 2.443641
H -4.389335 0.445827 1.704343
H -3.182564 -1.731147 -1.531436
H -4.605488 -1.315506 -0.488928
H -3.277639 -2.377689 0.137056
C 1.849778 -0.059583 0.060865
C 4.123091 -0.314140 0.589229
C 3.979304 0.743023 -0.512160
H 4.405761 0.134934 1.570433
H 4.365253 0.387289 -1.496836
C 1.975750 1.912730 -1.479843
H 2.149283 1.622621 -2.541104
H 0.891054 1.999835 -1.288426
H 2.454103 2.896962 -1.296213
C 2.491998 -1.988644 1.526000
H 2.368804 -1.680530 2.589507
H 1.563383 -2.488854 1.194152
H 3.330080 -2.712567 1.465919
N 2.768293 -0.870014 0.656632
N 2.527957 0.927211 -0.576814
H 4.492458 1.697263 -0.273890
H 4.867645 -1.101059 0.349668
C -0.222748 -0.916205 -1.643028
O -0.243219 -1.252181 -2.772325
C -0.303513 1.701870 0.877892
C -0.407818 2.871740 1.278014
H -0.470450 3.889541 1.638574
