37

Ir -0.240239 -0.081038 -0.262701
H -0.235661 -0.628980 -2.037579
H -0.155742 -1.456635 -1.865484
P -2.539151 -0.229058 -0.035542
C -3.114126 -0.405936 1.704962
C -3.291432 -1.689864 -0.866656
C -3.535370 1.188843 -0.667986
H -2.616216 -1.303405 2.121174
H -4.216220 -0.517121 1.762907
H -2.790996 0.481680 2.282107
H -2.779141 -2.587032 -0.465011
H -3.102414 -1.627222 -1.956116
H -4.382392 -1.750294 -0.677799
H -3.198286 2.117443 -0.167862
H -4.619295 1.038307 -0.488856
H -3.348583 1.302000 -1.753592
As 2.196182 -0.123020 -0.039843
C 3.226878 1.423874 -0.676484
C 3.098938 -1.624608 -0.914347
C 2.834680 -0.303291 1.802251
H 3.074304 1.526091 -1.767934
H 4.305836 1.306516 -0.455703
H 2.835621 2.334696 -0.184129
H 2.931844 -1.558692 -2.006503
H 2.623671 -2.546009 -0.525612
H 4.184438 -1.621985 -0.694704
H 2.482891 0.567514 2.387186
H 3.939847 -0.369041 1.837527
H 2.377626 -1.225400 2.208727
C -0.273869 1.774632 -0.184708
N -0.285229 2.995087 -0.124755
C -0.281232 4.017494 0.877255
H -0.263611 3.601754 1.910340
H -1.179234 4.664011 0.776623
H 0.602294 4.679660 0.752967
S -0.137286 -2.374872 0.836231
H -0.152498 -1.946935 2.131076
