38

Ir 0.000000 -0.057289 -0.290242
H 0.000052 -0.553177 -2.049249
H 0.000038 -1.375769 -1.781658
As -2.434709 -0.058436 -0.094958
C -3.102801 -0.162718 1.737952
C -3.367490 -1.521488 -0.995872
C -3.357621 1.525068 -0.792181
H -2.649899 -1.066604 2.185169
H -4.208343 -0.229214 1.750047
H -2.767086 0.737029 2.287177
H -2.932830 -2.457114 -0.598210
H -3.180232 -1.450333 -2.084413
H -4.455524 -1.476971 -0.794357
H -2.935465 2.426303 -0.308761
H -4.446121 1.462579 -0.598014
H -3.172691 1.595108 -1.880993
As 2.434711 -0.058334 -0.094930
C 3.357550 1.525469 -0.791572
C 3.367557 -1.521006 -0.996392
C 3.102874 -0.163233 1.737922
H 3.172211 1.596185 -1.880270
H 4.446115 1.462725 -0.597848
H 2.935702 2.426476 -0.307462
H 3.180346 -1.449422 -2.084913
H 2.932887 -2.456791 -0.599114
H 4.455581 -1.476559 -0.794808
H 2.767049 0.736254 2.287507
H 4.208427 -0.229565 1.749944
H 2.650132 -1.067354 2.184824
C -0.000098 1.798277 -0.089902
N -0.000212 3.011049 0.071695
C -0.000150 3.903256 1.197049
H -0.890433 4.566376 1.162299
H 0.890801 4.565516 1.162869
H -0.000709 3.362644 2.170624
N 0.000083 -2.003144 0.714369
O 1.078404 -2.546431 1.030288
O -1.078168 -2.546167 1.030971
