29

Ir -0.095476 -0.236867 -0.199994
H -0.056957 -0.838914 -1.786467
H -0.046753 0.143475 -1.978948
N 1.960589 -0.203529 -0.194712
C 2.605212 0.910467 -0.638335
C 4.003612 0.945024 -0.702658
N 4.784122 -0.084393 -0.337840
C 4.134069 -1.170370 0.110122
C 2.738769 -1.250896 0.186695
H 1.958319 1.760293 -0.907052
H 4.502788 1.858579 -1.069026
H 4.742345 -2.036258 0.424080
H 2.221326 -2.149508 0.549470
N -2.156188 -0.164414 -0.277928
C -4.464730 -0.665591 -0.205359
O -4.197299 0.732105 -0.544715
C -2.874370 0.889502 -0.511194
C -3.066252 -1.317827 -0.137114
H -2.867538 -2.036364 -0.958590
H -2.860970 -1.841155 0.817042
H -5.124470 -1.083189 -0.989939
H -5.005386 -0.673556 0.762761
H -2.443971 1.890471 -0.671699
C -0.156262 -1.510692 1.159051
N -0.183294 -2.466628 1.940846
H -0.205554 -2.319743 2.959185
N -0.133958 1.947381 -0.011444
C -0.106029 2.760119 0.894743
O -0.083268 3.621310 1.729786
