27

Ir -0.243180 -0.366826 -0.171010
H -0.369749 -0.801338 -1.791775
H -0.119313 0.177360 -1.885838
N 1.768133 -0.889814 -0.212891
C 3.643578 -2.129334 -0.305170
C 2.265028 -2.181968 -0.273523
N 3.963225 -0.786669 -0.263640
C 2.817922 -0.058558 -0.206778
H 4.900834 -0.384505 -0.266454
H 4.400982 -2.916853 -0.352697
H 1.593863 -3.045697 -0.278111
H 2.793095 1.039151 -0.145341
N -2.233026 0.199097 -0.152728
C -4.084476 1.468288 -0.177758
C -2.705079 1.500841 -0.180553
N -4.432702 0.130810 -0.144453
C -3.293540 -0.612804 -0.131061
H -5.380436 -0.245806 -0.131634
H -4.829018 2.269452 -0.194195
H -2.000923 2.339502 -0.185088
H -3.252255 -1.705807 -0.088711
C -0.598444 -1.750041 1.021956
N -0.888275 -2.781372 1.641014
H -0.867297 -2.784404 2.670556
N 0.297882 1.712188 0.230063
C 1.144557 2.556020 0.342186
S 2.336944 3.653760 0.474981
