32

Ir 0.314409 -0.011175 0.123774
H 0.238370 -0.131860 1.806274
H 0.203139 -1.116016 1.572985
N 2.479090 -0.240958 0.114531
C 2.943917 -0.180723 -1.297677
C 3.160426 0.806828 0.913588
C 2.813623 -1.590264 0.653212
H 2.910991 1.803538 0.506507
H 4.263077 0.652300 0.889958
H 2.802336 0.758745 1.957939
H 2.214203 -2.328473 0.083878
H 2.534366 -1.634752 1.721451
H 3.904755 -1.780817 0.546383
H 2.703499 0.810136 -1.722381
H 2.403708 -0.965318 -1.858394
H 4.042197 -0.357349 -1.349279
N -1.746686 -0.018113 0.053923
C -4.549334 -0.214341 0.052508
C -3.747123 -1.343141 -0.173318
C -2.355275 -1.217433 -0.169092
C -2.517002 1.081230 0.260729
C -3.913447 1.018021 0.265237
H -5.647100 -0.292140 0.062596
H -4.190700 -2.333345 -0.353970
H -1.637897 -2.037294 -0.379075
H -1.973422 2.021943 0.426674
H -4.488764 1.938397 0.441541
C 0.430047 1.756341 -0.433434
N 0.509150 2.975386 -0.661577
H 0.545790 3.308450 -1.635889
O 0.315252 -1.933238 -0.921294
H 0.154044 -1.703072 -1.856088
