36

Ir -0.149317 -0.500259 0.164247
H -0.248982 -1.105116 1.741135
H -0.056172 -0.152159 1.929653
P -2.416811 0.049460 0.140731
C -5.405109 0.966040 0.043135
C -4.400565 1.950765 0.107773
C -3.030107 1.670780 0.154147
C -3.830389 -0.949639 0.059389
C -5.125050 -0.411402 0.018477
H -6.456629 1.289015 0.008253
H -4.710331 3.009452 0.119659
H -2.276997 2.473651 0.192834
H -3.684470 -2.041021 0.036394
H -5.973595 -1.114039 -0.035942
C 1.907491 -0.646576 0.042555
C 4.150454 -0.560601 0.711470
C 4.056645 -0.183309 -0.774948
H 4.418767 0.314212 1.344907
H 4.578003 -0.904022 -1.444422
C 2.113842 0.260992 -2.296977
H 2.559628 -0.331661 -3.124819
H 1.014869 0.162002 -2.321087
H 2.382572 1.331223 -2.424324
C 2.462661 -1.448122 2.355693
H 2.301175 -0.604172 3.063818
H 1.552935 -2.074488 2.334258
H 3.302825 -2.065379 2.732678
N 2.779604 -0.990973 1.022455
N 2.611454 -0.216976 -1.024760
H 4.442078 0.836668 -0.978849
H 4.875563 -1.375689 0.915184
C -0.356237 -1.872545 -1.086374
O -0.472319 -2.784076 -1.814143
N 0.263725 1.654931 0.001781
C 1.241256 2.357131 0.002419
S 2.575880 3.279514 -0.021942
