40

Ir -0.026884 -0.054717 0.259047
H -0.088108 0.183449 1.934614
H -0.002384 -0.776384 1.956651
As 2.417059 -0.159409 0.086146
C 2.867353 -0.844733 -1.684952
C 3.201651 -1.516052 1.251341
C 3.600443 1.396342 0.287944
H 2.213992 -1.732791 -1.785423
H 3.937881 -1.115018 -1.768155
H 2.594910 -0.088577 -2.445124
H 2.570106 -2.407581 1.071050
H 3.107584 -1.198172 2.307177
H 4.262016 -1.714113 1.001086
H 3.256146 2.186901 -0.406789
H 4.652535 1.132806 0.062642
H 3.525461 1.778376 1.324307
C -2.044097 -0.328683 0.108871
C -4.355965 -0.150691 0.477465
C -4.101128 -1.119536 -0.683856
H -4.707325 -0.676017 1.397616
H -4.402808 -0.688982 -1.668295
C -1.983447 -2.149022 -1.598406
H -2.043827 -1.718080 -2.624018
H -0.921617 -2.280203 -1.281271
H -2.485219 -3.138872 -1.604494
C -2.834104 1.426992 1.709913
H -3.008954 1.023396 2.734762
H -1.794609 1.798682 1.646953
H -3.539303 2.269051 1.544384
N -3.023989 0.417509 0.696630
N -2.646507 -1.286911 -0.638172
H -4.621155 -2.092738 -0.568816
H -5.097358 0.639904 0.238376
C -0.151195 1.510623 -0.735434
N -0.216804 2.540806 -1.396538
C -0.399958 3.930864 -1.086091
H -1.299069 4.327316 -1.604834
H 0.464276 4.525606 -1.452194
H -0.513960 4.121572 0.005894
F 0.517967 -2.169142 -0.191087
