28

Ir 0.097544 -0.388547 -0.154757
H 0.235989 -0.855210 -1.771923
H 0.016228 0.123939 -1.884276
N 2.108767 0.068680 -0.114667
C 2.531996 1.353502 -0.257644
C 3.899144 1.653624 -0.295914
N 4.861701 0.723293 -0.193890
C 4.429186 -0.538277 -0.041721
C 3.073169 -0.883433 -0.001342
H 1.738165 2.113389 -0.322601
H 4.215800 2.704072 -0.415355
H 5.190851 -1.331850 0.050338
H 2.735038 -1.921253 0.122261
N -1.938012 -0.827321 -0.245826
C -3.850552 -1.995859 -0.428748
C -2.475977 -2.098146 -0.373791
N -4.125130 -0.645998 -0.331397
C -2.958882 0.039129 -0.220975
H -5.048965 -0.212288 -0.334103
H -4.633030 -2.753660 -0.526475
H -1.835411 -2.984232 -0.405744
H -2.899246 1.131861 -0.112109
C 0.324126 -1.777121 1.071483
N 0.498532 -2.812153 1.717632
H 0.442929 -2.826374 2.744510
N -0.372010 1.709618 0.220858
C -1.193920 2.575079 0.361659
S -2.348493 3.702869 0.532799
