28

Ir 0.000000 0.154391 -0.231137
H -0.000002 0.471023 -1.905043
H 0.000003 -0.509362 -1.907575
P -2.306867 0.035259 -0.099846
C -5.410068 -0.166277 0.091849
C -4.834102 1.100096 -0.111982
C -3.454218 1.326103 -0.219462
C -3.251911 -1.392511 0.148648
C -4.649529 -1.344605 0.214250
H -6.505972 -0.239052 0.161234
H -5.505452 1.971320 -0.193329
H -3.068554 2.345138 -0.378897
H -2.685917 -2.330414 0.264472
H -5.185197 -2.295185 0.376268
P 2.306866 0.035260 -0.099845
C 5.410067 -0.166277 0.091847
C 4.649529 -1.344607 0.214233
C 3.251911 -1.392513 0.148630
C 3.454215 1.326106 -0.219445
C 4.834099 1.100099 -0.111968
H 6.505971 -0.239052 0.161230
H 5.185197 -2.295189 0.376238
H 2.685918 -2.330419 0.264442
H 3.068550 2.345143 -0.378865
H 5.505448 1.971324 -0.193304
C 0.000000 1.749046 0.756043
O 0.000005 2.781323 1.306071
Cl 0.000004 -2.284102 0.451858
