30

Ir 0.000024 0.080657 -0.254533
H 0.000157 0.375281 -1.912163
H 0.000176 -0.659938 -1.854238
P -2.300255 0.017785 -0.073600
C -5.419813 -0.019235 0.126864
C -4.774529 1.217176 -0.055948
C -3.385453 1.367863 -0.165764
C -3.328781 -1.357457 0.152749
C -4.722052 -1.237572 0.224997
H -6.517926 -0.034031 0.199080
H -5.397699 2.125245 -0.119458
H -2.942891 2.366286 -0.307801
H -2.816085 -2.326468 0.263477
H -5.307037 -2.161185 0.373388
P 2.300272 0.017877 -0.073303
C 5.419835 -0.019162 0.126713
C 4.722128 -1.237582 0.224248
C 3.328854 -1.357476 0.152092
C 3.385396 1.368047 -0.164893
C 4.774489 1.217332 -0.055333
H 6.517957 -0.033963 0.198779
H 5.307166 -2.161257 0.372042
H 2.816185 -2.326561 0.262341
H 2.942784 2.366530 -0.306347
H 5.397626 2.125452 -0.118429
C -0.000151 1.765120 0.618111
N -0.000328 2.911822 1.042150
H -0.000620 3.186003 2.030602
S 0.000087 -2.327630 0.560224
H -0.000543 -2.969900 -0.640325
