36

Ir -0.125865 0.157039 -0.304226
H -0.138589 -0.180340 -2.142300
H -0.201288 -0.997095 -1.941042
C -2.164933 0.117070 -0.090661
C -4.199935 -0.110589 0.888804
C -4.410025 0.078079 -0.452111
H -4.907922 -0.264582 1.708388
H -5.334974 0.120578 -1.034618
C -2.926716 0.441268 -2.450664
H -2.088651 1.152327 -2.577834
H -2.664346 -0.509264 -2.957772
H -3.841827 0.858915 -2.909961
C -2.168050 -0.255568 2.378466
H -1.511352 -1.148662 2.322069
H -1.546583 0.630773 2.607436
H -2.940496 -0.388392 3.158077
N -2.829688 -0.074412 1.090624
N -3.156813 0.227694 -1.031574
P 2.182072 0.074832 -0.208207
C 5.310421 -0.047270 0.065626
C 4.688252 1.213134 0.020558
C 3.304872 1.397851 -0.105516
C 3.197133 -1.332281 -0.125067
C 4.589384 -1.254316 -0.004603
H 6.405890 -0.091548 0.163511
H 5.326802 2.110595 0.086128
H 2.886765 2.416479 -0.134932
H 2.676369 -2.303415 -0.147264
H 5.154882 -2.200573 0.044152
C -0.116617 1.859990 0.414531
N -0.127926 2.919038 1.020431
C -0.116025 4.320717 0.724390
H 0.779857 4.799299 1.173782
H -1.002438 4.815707 1.174109
H -0.114393 4.529328 -0.368983
Br -0.202935 -2.475411 0.376762
