54

Ir 1.229043 -0.158274 -0.275246
H 1.208983 -0.743965 -1.967937
H 1.254128 -1.551810 -1.591643
P -1.031118 -0.080372 -0.085161
C -1.321238 2.187992 -1.721351
C -1.818477 1.524050 -0.580328
C -1.671190 -0.320262 1.634878
C -0.958417 0.276222 2.696149
C -1.430912 0.169170 4.011676
C -2.613205 -0.541726 4.281762
C -3.322454 -1.140940 3.229265
C -2.857289 -1.029091 1.908219
C -1.975299 -1.322034 -1.082867
C -1.653666 -2.689088 -0.928681
C -2.347816 -3.657863 -1.667593
C -3.356736 -3.278173 -2.569360
C -3.675424 -1.920542 -2.725872
C -2.991449 -0.943101 -1.983866
C -2.902355 2.083301 0.126059
C -3.479544 3.289346 -0.304589
C -2.985020 3.941829 -1.444866
C -1.906041 3.386804 -2.153538
H -0.455689 1.762472 -2.252875
H -0.018083 0.806772 2.473465
H -0.866643 0.635335 4.834329
H -2.978346 -0.633917 5.316368
H -4.245716 -1.704335 3.435415
H -3.416477 -1.502125 1.086873
H -0.855198 -2.975138 -0.218639
H -2.093392 -4.721500 -1.538609
H -3.895173 -4.042120 -3.151762
H -4.464241 -1.614404 -3.430485
H -3.252427 0.117984 -2.110089
H -3.296510 1.577999 1.020440
H -4.321704 3.721148 0.258169
H -3.437988 4.887979 -1.779688
H -1.507886 3.897267 -3.043995
N 3.393303 -0.242429 -0.318647
C 5.546122 0.229543 -0.763745
C 4.240594 0.626987 -0.978663
N 5.461697 -0.893417 0.039971
C 4.151167 -1.151815 0.293793
H 6.245979 -1.444030 0.390090
H 6.501070 0.639444 -1.106066
H 3.848896 1.475207 -1.548801
H 3.729738 -1.970425 0.900871
C 1.344865 1.678998 0.004574
N 1.438173 2.892019 0.143587
C 1.394621 3.798171 1.255696
H 1.378299 3.276162 2.239693
H 0.487242 4.435769 1.185252
H 2.270841 4.479827 1.234960
S 1.225337 -2.320119 1.079893
H 0.888139 -1.774911 2.282826
