51

Ir 0.935649 -0.301496 0.231992
H 0.827344 -0.372052 2.010060
H 0.891932 0.514174 1.935179
P -1.410050 -0.098822 0.054241
C -1.883197 -2.755065 0.822328
C -2.287563 -1.719512 -0.047358
C -1.987091 0.826003 -1.424896
C -1.237009 0.741717 -2.615186
C -1.693803 1.382851 -3.774882
C -2.888961 2.120967 -3.750418
C -3.630297 2.217051 -2.561978
C -3.183230 1.571096 -1.398394
C -2.219042 0.744708 1.482958
C -1.736713 2.012596 1.877125
C -2.339602 2.684103 2.950092
C -3.417704 2.102320 3.638823
C -3.896997 0.842778 3.247961
C -3.303011 0.162890 2.171815
C -3.351618 -1.941901 -0.943917
C -4.003708 -3.185573 -0.965793
C -3.605075 -4.209075 -0.092254
C -2.544382 -3.990828 0.803161
H -1.034995 -2.589191 1.505273
H -0.285457 0.188270 -2.616826
H -1.101917 1.318728 -4.700502
H -3.239224 2.632510 -4.660208
H -4.561819 2.803068 -2.536177
H -3.762632 1.652950 -0.466102
H -0.889378 2.467511 1.334356
H -1.959377 3.672517 3.250795
H -3.885013 2.632465 4.483091
H -4.741203 0.380680 3.782521
H -3.686557 -0.823054 1.870619
H -3.668887 -1.143910 -1.631495
H -4.828451 -3.354014 -1.675157
H -4.117131 -5.183350 -0.113685
H -2.221368 -4.792575 1.484628
P 3.251725 -0.349492 0.207793
C 6.377878 -0.423356 0.166977
C 5.734453 0.815639 0.345397
C 4.344930 0.984586 0.378866
C 4.279220 -1.733042 0.012250
C 5.677186 -1.631733 0.004833
H 7.478067 -0.447138 0.149882
H 6.361865 1.715707 0.460306
H 3.886307 1.979946 0.490428
H 3.794588 -2.713280 -0.119782
H 6.260159 -2.557614 -0.134994
C 0.896311 -1.893728 -0.712788
O 0.893304 -2.910844 -1.296847
Br 1.116022 2.311183 -0.377419
