26

Ir 0.266906 -0.547631 -0.207216
H 0.368100 -0.480706 -2.061149
H 0.423261 0.363705 -1.937484
N 2.409859 -0.600713 -0.200976
C 4.523128 -1.298651 -0.517445
C 3.194994 -1.617330 -0.716049
N 4.517107 -0.076950 0.129420
C 3.231414 0.318853 0.310359
H 5.337560 0.451571 0.428216
H 5.445986 -1.826271 -0.775382
H 2.749938 -2.499514 -1.186259
H 2.899518 1.259065 0.773196
P -1.976890 -0.438047 -0.150786
C -5.101547 -0.328935 -0.112594
C -4.395787 0.730681 -0.711895
C -2.999973 0.804641 -0.794832
C -3.070045 -1.609437 0.510246
C -4.460176 -1.436318 0.469794
H -6.200946 -0.286842 -0.095110
H -4.975202 1.566493 -1.138973
H -2.504765 1.678178 -1.245869
H -2.637034 -2.504580 0.982903
H -5.086704 -2.222726 0.923245
C 0.226448 -2.109740 0.763247
O 0.202878 -3.094050 1.403412
I 0.307158 2.302140 0.332428
