37

Ir 0.246974 0.285064 -0.156932
H 0.315085 0.223557 -2.031303
H 0.397079 -0.613516 -1.989862
P -2.041980 0.202411 -0.075657
C -2.730771 0.484515 1.624528
C -2.866861 -1.372119 -0.608420
C -2.501440 -1.872997 -2.005783
C -2.939953 1.465555 -1.108330
C -2.486006 2.915242 -0.937938
C -2.133212 -0.426151 2.699259
H -2.520901 1.549993 1.858675
H -3.835891 0.378175 1.556543
H -2.570538 -2.127620 0.147584
H -3.959531 -1.188753 -0.507940
H -2.800466 1.139496 -2.160997
H -4.022583 1.348843 -0.880585
H -1.435394 -2.173284 -2.034565
H -3.107474 -2.766108 -2.260788
H -2.681753 -1.114867 -2.795737
H -2.585723 3.267468 0.108588
H -1.422008 3.031965 -1.222974
H -3.092138 3.590140 -1.576092
H -2.332970 -1.496980 2.496479
H -1.032167 -0.309218 2.741453
H -2.556223 -0.180802 3.694597
N 2.408853 0.314804 -0.166985
C 4.574458 -0.273731 -0.065134
C 3.279374 -0.742936 0.024714
N 4.469522 1.083041 -0.311716
C 3.149870 1.406501 -0.368412
H 5.243328 1.737912 -0.427738
H 5.539615 -0.780810 0.025531
H 2.883294 -1.749543 0.213178
H 2.762112 2.415596 -0.541958
C 0.201182 1.874919 0.732683
O 0.194346 2.881432 1.350369
Br 0.326993 -2.364483 0.326615
