36

Ir 0.096675 -0.190305 -0.103041
H 0.281724 -0.821175 -1.650850
H 0.195005 0.201703 -1.831827
N 2.268987 -0.091849 -0.091210
C 3.011124 -1.207986 0.112874
C 4.408521 -1.167878 0.028604
N 5.089117 -0.046890 -0.262266
C 4.342062 1.051081 -0.450662
C 2.940903 1.051179 -0.366516
H 2.464877 -2.133783 0.344440
H 4.991846 -2.089355 0.199566
H 4.870190 1.992364 -0.682034
H 2.320890 1.960508 -0.461321
C -1.912136 -0.267464 -0.100120
C -4.095739 0.312937 0.488504
C -4.143543 -0.563019 -0.767754
H -4.797240 -0.014701 1.282882
H -4.702757 -0.093056 -1.602847
C -2.344140 -1.416476 -2.297108
H -2.341309 -0.752177 -3.189200
H -1.337056 -1.853284 -2.172217
H -3.063701 -2.242465 -2.478849
C -2.277803 0.915516 2.083246
H -2.399270 2.008750 1.922431
H -2.878706 0.600727 2.961968
H -1.209092 0.710666 2.274678
N -2.703023 0.174549 0.915874
N -2.723232 -0.707202 -1.097101
H -4.593454 -1.565758 -0.577905
H -4.301673 1.384083 0.259240
C 0.145651 -1.431226 1.301410
N 0.229022 -2.342360 2.127699
H 0.174950 -2.159512 3.139528
N -0.215198 2.051319 -0.073467
O 0.706590 2.834068 0.219445
O -1.355130 2.490562 -0.298833
