47

Ir 0.055836 0.251136 -0.090083
H -0.030745 1.079273 -1.624996
H 0.063766 0.206480 -1.940098
P -2.310812 0.025430 -0.106833
C -3.048928 -0.299600 1.565510
C -3.050109 -1.312268 -1.159978
C -2.552131 -1.343643 -2.604614
C -3.244089 1.531146 -0.679939
C -2.828320 2.844413 -0.015144
C -2.369034 -1.422560 2.350942
H -2.971425 0.659726 2.120370
H -4.132583 -0.498734 1.413655
H -2.784559 -2.259660 -0.652047
H -4.152931 -1.179112 -1.105969
H -3.077254 1.584194 -1.777292
H -4.327015 1.323982 -0.532547
H -1.464395 -1.549450 -2.636326
H -3.061970 -2.148888 -3.171402
H -2.738119 -0.390940 -3.142775
H -2.970966 2.820655 1.084353
H -1.756667 3.057231 -0.199406
H -3.426658 3.690664 -0.409982
H -2.378841 -2.383430 1.801756
H -1.305391 -1.172327 2.535283
H -2.867940 -1.567646 3.330662
C 2.123828 0.269850 -0.004563
C 4.386675 0.616854 -0.525222
C 4.261768 -0.535207 0.479902
H 4.951903 0.337672 -1.438260
H 4.936769 -0.434624 1.354354
C 2.349445 -1.409030 1.839517
H 2.930535 -1.334355 2.782096
H 1.285570 -1.186645 2.040541
H 2.418778 -2.443449 1.438463
C 2.663439 1.920309 -1.814182
H 2.742876 1.535412 -2.854740
H 1.634176 2.283096 -1.641406
H 3.362950 2.777020 -1.705029
N 2.983079 0.904709 -0.839265
N 2.854811 -0.451646 0.879930
H 4.447459 -1.526996 0.007156
H 4.871341 1.521194 -0.088158
C -0.060643 1.321311 1.423770
O -0.160541 1.962056 2.407475
N 0.315529 -1.943035 -0.441229
O 1.401038 -2.362196 -0.885480
O -0.578146 -2.747221 -0.119675
