30

Ir 0.000008 -0.238993 -0.117237
H 0.000014 -0.527305 -1.807967
H 0.000008 0.441738 -1.821017
N 2.085485 -0.189909 -0.088197
C 4.890232 -0.099413 -0.019813
C 4.222075 -1.067642 -0.783234
C 2.824438 -1.085292 -0.790684
C 2.726640 0.746490 0.657874
C 4.121929 0.818077 0.710748
H 5.989760 -0.063560 0.007435
H 4.771417 -1.815468 -1.372762
H 2.252978 -1.830363 -1.361867
H 2.061121 1.446619 1.187425
H 4.591904 1.596176 1.329183
N -2.085468 -0.189938 -0.088195
C -4.890216 -0.099479 -0.019808
C -4.121924 0.817968 0.710819
C -2.726634 0.746399 0.657941
C -2.824410 -1.085282 -0.790745
C -4.222048 -1.067648 -0.783296
H -5.989744 -0.063639 0.007440
H -4.591908 1.596017 1.329309
H -2.061128 1.446499 1.187544
H -2.252940 -1.830308 -1.361978
H -4.771380 -1.815438 -1.372877
C 0.000017 -1.791471 0.913594
O 0.000029 -2.800383 1.517557
N -0.000009 1.875865 0.469048
C -0.000079 2.985188 -0.033096
O -0.000143 4.105635 -0.461681
