40

Ir 0.234383 0.055422 -0.154072
H 0.280743 -0.380552 -1.996292
H 0.402799 -1.206790 -1.917342
P -2.043970 -0.018996 -0.023934
C -2.728636 0.744926 1.526192
C -2.855735 -1.688798 -0.049683
C -2.610332 -2.515180 -1.311830
C -2.969522 0.878338 -1.368840
C -2.576252 2.338414 -1.593486
C -2.133147 0.172644 2.814127
H -2.506470 1.829880 1.445114
H -3.834748 0.635147 1.498156
H -2.431552 -2.224566 0.824567
H -3.940743 -1.517880 0.126184
H -2.787808 0.287104 -2.291384
H -4.052729 0.777127 -1.135121
H -1.529895 -2.731709 -1.425521
H -3.138467 -3.487920 -1.241051
H -2.969216 -2.010497 -2.232154
H -2.734754 2.961077 -0.690216
H -1.504843 2.422959 -1.860061
H -3.177673 2.780102 -2.414177
H -2.352743 -0.908136 2.927942
H -1.029835 0.286385 2.812803
H -2.541700 0.693690 3.704094
N 2.384239 0.104574 -0.179517
C 4.646798 -0.577309 -0.134598
O 4.494975 0.868058 0.049564
C 3.175587 1.095427 0.070336
C 3.233124 -1.063029 -0.498471
H 2.861106 -1.932926 0.085216
H 3.110183 -1.301991 -1.576924
H 5.019622 -0.993144 0.825298
H 5.408238 -0.742440 -0.920315
H 2.844542 2.121103 0.291048
C 0.183336 1.840884 0.275090
N 0.198102 3.029962 0.622840
H 0.193629 3.294309 1.617275
S 0.403826 -2.306862 0.739673
H 0.335658 -1.967182 2.057897
