35

Ir -0.161326 -0.449614 -0.120617
H -0.262768 -1.025604 -1.733166
H -0.006493 -0.130652 -1.933086
N 1.918955 -0.951027 -0.115023
C 4.225089 -0.683094 -0.541216
O 3.964319 -1.358548 0.734554
C 2.640735 -1.348339 0.882484
C 2.848278 -0.645432 -1.226616
H 2.713341 -1.409076 -2.022698
H 2.628262 0.355137 -1.645670
H 5.003092 -1.257381 -1.077186
H 4.584168 0.341141 -0.303966
H 2.239894 -1.688780 1.848741
C -2.058063 0.226530 -0.090789
C -4.262637 0.703879 -0.727477
C -3.967291 1.385680 0.613328
H -4.326456 1.435435 -1.567218
H -4.503237 0.899845 1.462892
C -1.838697 1.712252 1.915566
H -2.090405 1.127827 2.829515
H -0.748566 1.688942 1.737542
H -2.147891 2.765403 2.071736
C -3.016848 -1.066442 -2.015519
H -2.761022 -0.544754 -2.966278
H -2.247690 -1.834509 -1.813541
H -3.998255 -1.566313 -2.144758
N -3.089704 -0.158275 -0.894719
N -2.522833 1.184604 0.751876
H -4.223467 2.464463 0.623384
H -5.199090 0.109566 -0.722640
C -0.585353 -1.689883 1.187749
O -0.850750 -2.507767 1.991342
N 0.658388 1.593489 0.001273
C 1.701042 2.187974 -0.068667
S 3.124309 2.964989 -0.183762
