35

Ir -0.161113 0.204548 -0.127664
H -0.169819 0.932717 -1.716516
H -0.117035 0.071798 -2.002414
P -2.506557 0.083286 -0.096145
C -3.099289 -1.062661 1.213900
C -3.256093 -0.599658 -1.630567
C -3.435855 1.643531 0.216646
H -2.574354 -2.023737 1.040839
H -4.198880 -1.201282 1.182696
H -2.795289 -0.662814 2.200732
H -2.746486 -1.565922 -1.819884
H -3.049283 0.085752 -2.475681
H -4.349872 -0.747011 -1.525899
H -3.048361 2.103279 1.147202
H -4.526530 1.465057 0.307631
H -3.243186 2.348947 -0.615227
C 1.893452 0.058366 -0.055179
C 3.973095 -0.658703 0.522573
C 4.125112 0.298623 -0.445914
H 4.715780 -1.252411 1.063711
H 5.024445 0.703682 -0.919126
C 2.555437 1.748082 -1.773311
H 2.241625 1.285670 -2.731472
H 1.730946 2.387381 -1.404846
H 3.458687 2.362789 -1.944077
C 2.009037 -1.691086 1.723180
H 1.247485 -2.315418 1.209103
H 2.803115 -2.320740 2.164915
H 1.507980 -1.105201 2.518533
N 2.611667 -0.787193 0.749785
N 2.847850 0.731119 -0.777339
C -0.179977 1.274728 1.375302
N -0.213877 2.100738 2.293949
H -0.246785 1.800097 3.276672
Cl -0.346419 -2.337180 -0.613478
