27

Ir 0.286397 -0.307530 -0.222947
H 0.339385 -0.517784 -1.904109
H 0.388214 0.475456 -1.827607
N 2.423889 -0.347114 -0.225015
C 4.551719 -1.053567 -0.355524
C 3.231684 -1.455542 -0.400213
N 4.515769 0.313793 -0.150802
C 3.220105 0.713211 -0.074353
H 5.322894 0.932225 -0.065449
H 5.487613 -1.611994 -0.449820
H 2.805429 -2.454287 -0.535739
H 2.848551 1.734183 0.102823
P -1.955000 -0.243704 -0.180069
C -5.076844 -0.151109 -0.140332
C -4.439073 -1.387192 0.067858
C -3.048452 -1.564176 0.070366
C -2.972397 1.140893 -0.400819
C -4.369023 1.045168 -0.361379
H -6.176739 -0.117191 -0.125877
H -5.069840 -2.276248 0.237356
H -2.610271 -2.560178 0.239077
H -2.462708 2.106529 -0.544353
H -4.948211 1.972762 -0.506980
C 0.275653 -1.798959 0.911667
N 0.288748 -2.872509 1.508463
H 0.302355 -2.938014 2.534321
Br 0.348762 2.285666 0.539491
