35

Ir 0.070087 -0.256621 -0.213209
H 0.171029 -0.831212 -1.819640
H 0.046077 0.093476 -2.051148
N 2.212143 0.111908 -0.160749
C 2.556323 0.705801 1.161295
C 2.989915 -1.139210 -0.359298
C 2.577823 1.087609 -1.225632
H 2.734702 -1.865608 0.432691
H 4.080650 -0.918127 -0.331760
H 2.726218 -1.582079 -1.336576
H 1.947920 1.988129 -1.105474
H 2.379318 0.638430 -2.215451
H 3.656788 1.345569 -1.147041
H 2.313573 -0.016839 1.960188
H 1.951575 1.619019 1.305006
H 3.640963 0.953025 1.196905
N -2.095097 -0.483713 -0.229004
C -2.640823 -0.028071 1.080568
C -2.684026 0.357302 -1.308266
C -2.489457 -1.900180 -0.455097
H -2.341296 1.399128 -1.178324
H -3.794102 0.303610 -1.266740
H -2.335588 -0.012560 -2.289267
H -2.071766 -2.534960 0.346369
H -2.078842 -2.243799 -1.421422
H -3.599134 -1.988815 -0.467858
H -2.350438 1.023050 1.254118
H -2.219805 -0.653395 1.887188
H -3.750417 -0.115021 1.080206
C 0.226200 -1.577678 1.062186
N 0.338996 -2.563249 1.809554
H 0.306531 -2.441195 2.831455
N -0.188621 1.904733 -0.104449
C -0.611819 2.857067 0.515222
O -1.028431 3.829554 1.090042
