53

Ir -1.011233 -0.587100 -0.211903
H -0.754833 -1.591629 -1.545280
H -0.953625 -0.721677 -2.010855
P 1.213570 -0.073848 -0.031833
C 2.025235 -2.703666 0.504424
C 2.290399 -1.342485 0.761811
C 1.520087 1.482504 0.907781
C 0.613795 1.868291 1.915629
C 0.814287 3.061580 2.623458
C 1.927156 3.870069 2.341532
C 2.836406 3.487449 1.342073
C 2.632116 2.301934 0.619078
C 2.014902 0.248051 -1.661024
C 1.385852 1.174115 -2.523089
C 1.958637 1.463367 -3.769221
C 3.149150 0.830062 -4.167656
C 3.770336 -0.093892 -3.313652
C 3.208044 -0.385367 -2.059120
C 3.379983 -0.989637 1.583628
C 4.198611 -1.989240 2.133226
C 3.938244 -3.342501 1.864829
C 2.850491 -3.697430 1.049725
H 1.153887 -2.975084 -0.111632
H -0.272642 1.246733 2.112512
H 0.079925 3.371020 3.381914
H 2.078121 4.811551 2.891756
H 3.703763 4.124400 1.109764
H 3.331049 2.022565 -0.184331
H 0.446496 1.658962 -2.208413
H 1.467901 2.188154 -4.436864
H 3.592769 1.057375 -5.149372
H 4.701266 -0.594095 -3.622304
H 3.699808 -1.108347 -1.390967
H 3.586585 0.069075 1.800751
H 5.044234 -1.706093 2.778747
H 4.580668 -4.124186 2.298899
H 2.634779 -4.757397 0.845761
N -3.123532 -0.915852 -0.323541
C -5.242557 -1.937958 -0.588500
O -5.332767 -0.535881 -0.190140
C -4.081836 -0.077664 -0.092542
C -3.723850 -2.229704 -0.613503
H -3.360502 -2.596622 -1.594491
H -3.394081 -2.954697 0.158978
H -5.732130 -2.036806 -1.578182
H -5.807018 -2.536427 0.152998
H -3.956198 0.983573 0.185094
C -0.985289 -1.482727 1.426608
N -0.990678 -2.248850 2.389340
H -1.103221 -1.918544 3.355636
N -1.429490 1.509732 -0.616934
C -1.990030 2.437381 -0.093495
S -2.786161 3.659956 0.611309
