31

Ir 0.299173 0.069220 0.163983
H 0.257403 -0.265948 1.933842
H 0.236066 -1.128100 1.698608
N 2.500685 -0.062774 0.173618
C 2.992290 -0.007528 -1.232669
C 3.097947 1.056363 0.950189
C 2.955113 -1.346462 0.777495
H 2.824891 2.022585 0.490422
H 4.206604 0.957934 0.968947
H 2.706498 1.036991 1.983480
H 2.508602 -2.182136 0.205990
H 2.620294 -1.397535 1.829732
H 4.065394 -1.404769 0.742909
H 2.681890 0.946983 -1.694476
H 2.534418 -0.847718 -1.788321
H 4.102587 -0.088308 -1.249681
N -1.765629 0.075284 0.137036
C -4.592625 -0.026373 0.097452
C -3.833424 -1.139307 0.479858
C -2.437516 -1.062071 0.481919
C -2.507719 1.154045 -0.239082
C -3.902978 1.138487 -0.272816
H -5.692060 -0.063385 0.087129
H -4.309015 -2.085579 0.775502
H -1.811787 -1.926754 0.736887
H -1.947651 2.055954 -0.516576
H -4.434913 2.047249 -0.588983
C 0.422983 1.834180 -0.354862
O 0.541376 2.939864 -0.759453
S 0.238702 -2.159250 -1.013181
H -0.045579 -1.673899 -2.255108
