32

Ir -0.413457 -0.175916 0.355418
H -0.502748 -0.391156 2.026818
H -0.442497 0.619988 1.965326
N -2.532278 0.100022 0.283047
C -4.752379 -0.212293 0.406720
C -3.522438 -0.818367 0.573194
N -4.476480 1.083363 0.011149
C -3.129452 1.243551 -0.056537
H -5.162904 1.808809 -0.198661
H -5.772772 -0.585152 0.534664
H -3.278618 -1.842164 0.873207
H -2.589342 2.153088 -0.347326
P 1.818516 -0.420680 0.304501
C 4.917465 -0.789771 0.226526
C 4.110937 -1.930279 0.387882
C 2.710584 -1.899922 0.438405
C 3.019409 0.813816 0.115237
C 4.386564 0.506917 0.096552
H 6.010246 -0.916720 0.198899
H 4.607381 -2.910962 0.482035
H 2.134164 -2.829339 0.565578
H 2.684996 1.858047 -0.010501
H 5.089457 1.347248 -0.032656
C -0.594313 -1.825450 -0.548503
N -0.730844 -2.951033 -0.990055
C -0.794247 -3.619847 -2.255583
H -1.748780 -4.179295 -2.344112
H 0.024688 -4.365339 -2.331350
H -0.712792 -2.916146 -3.112944
N -0.275375 1.851259 -0.391593
C 0.377686 2.834283 -0.626683
S 1.246493 4.162730 -0.945922
