44

Ir 0.109828 0.022901 -0.267321
H 0.005072 -0.816136 -1.852184
H -0.064581 -1.574160 -1.405834
P -2.236082 -0.084294 0.082933
C -2.837889 1.166433 1.319814
C -2.915785 -1.676819 0.749669
C -2.686821 -2.899029 -0.139952
C -3.339035 0.234788 -1.384491
C -3.017140 1.504316 -2.174647
C -2.074343 1.144428 2.645480
H -2.721381 2.155312 0.827501
H -3.927737 1.001960 1.468293
H -2.390457 -1.823075 1.716674
H -3.996554 -1.512157 0.953193
H -3.230218 -0.658349 -2.036001
H -4.389691 0.236683 -1.018590
H -1.603305 -3.071849 -0.297305
H -3.102053 -3.808749 0.339639
H -3.168065 -2.800063 -1.134713
H -3.099713 2.418717 -1.553079
H -1.983359 1.473216 -2.571891
H -3.713051 1.619518 -3.030602
H -2.162769 0.167772 3.162003
H -0.994108 1.319772 2.466985
H -2.453429 1.930009 3.330593
C 2.170882 0.052881 -0.183184
C 4.368176 -0.545390 -0.330438
C 4.311807 0.634383 0.359343
H 5.220242 -1.173227 -0.606869
H 5.105157 1.247405 0.796651
C 2.495876 2.160334 1.156626
H 2.266006 2.990821 0.461053
H 1.567912 1.900666 1.699557
H 3.275001 2.483988 1.871913
C 2.687293 -2.132963 -1.295731
H 3.603433 -2.712928 -1.509487
H 2.029329 -2.696888 -0.601401
H 2.146742 -1.939795 -2.242007
N 3.062668 -0.882757 -0.654965
N 2.970688 0.983111 0.444352
C -0.049215 1.842417 -0.521185
O -0.203677 3.007380 -0.640673
S 0.408530 -1.839903 1.444056
H 1.042668 -1.095218 2.392556
