29

Ir -0.230003 0.104525 0.244215
H -0.264306 0.236960 1.936844
H -0.299518 -0.748032 1.879507
As 2.115713 -0.159334 -0.030930
C 2.502044 -0.912883 -1.786862
C 2.942785 -1.456943 1.178232
C 3.289251 1.400277 0.112419
H 1.761514 -1.733036 -1.882381
H 3.545159 -1.277258 -1.857954
H 2.304578 -0.142497 -2.555690
H 2.390469 -2.407386 1.052754
H 2.828693 -1.105815 2.221360
H 4.013828 -1.603945 0.937219
H 2.915151 2.178604 -0.579961
H 4.334173 1.135458 -0.141395
H 3.238309 1.793638 1.145596
N -2.350066 -0.058754 0.101939
C -4.578281 0.198375 0.118963
C -3.378160 0.772699 0.494706
N -4.240869 -0.989513 -0.505624
C -2.887781 -1.118429 -0.503508
H -4.892908 -1.660653 -0.911770
H -5.614612 0.527435 0.240467
H -3.184312 1.718533 1.010415
H -2.247734 -1.926881 -0.904781
C -0.193249 1.821406 -0.452715
O -0.144845 2.928185 -0.858932
O -0.208397 -1.942179 -0.600212
H -0.153974 -2.552678 0.157429
