38

Ir 0.358110 -0.083195 -0.259079
H 0.372577 -0.723508 -1.997297
H 0.394458 -1.527635 -1.708310
As -2.027454 -0.011177 -0.144519
C -2.801634 -0.102119 1.647424
C -2.965351 -1.410471 -1.134347
C -2.841302 1.619349 -0.866446
H -2.435534 -1.036589 2.110407
H -3.907772 -0.097767 1.591547
H -2.445942 0.770046 2.227795
H -2.610174 -2.374095 -0.726458
H -2.698391 -1.329436 -2.205415
H -4.060632 -1.306288 -1.008314
H -2.425847 2.496066 -0.335202
H -3.942117 1.587182 -0.749466
H -2.577381 1.704305 -1.937612
N 2.621687 -0.128881 -0.264244
C 3.162709 0.925333 -1.154656
C 3.080336 0.102706 1.130093
C 3.122099 -1.449256 -0.723580
H 2.728530 1.092973 1.471555
H 4.193336 0.067162 1.180583
H 2.646872 -0.688548 1.769476
H 2.813240 -1.616078 -1.772168
H 2.693922 -2.232785 -0.072154
H 4.233833 -1.477521 -0.666568
H 2.815255 1.918748 -0.819066
H 2.798802 0.761445 -2.185859
H 4.276693 0.898306 -1.148133
C 0.391933 1.756608 -0.041509
N 0.430444 2.965169 0.174459
C 0.413733 3.766794 1.370256
H 0.339539 3.155113 2.297851
H -0.443048 4.473224 1.344908
H 1.333426 4.386489 1.429864
N 0.241426 -1.962405 0.865706
O 1.224675 -2.423516 1.477077
O -0.873698 -2.513580 1.001849
