33

Ir 0.153177 0.021506 -0.163350
H 0.252338 -0.470416 -1.804644
H 0.278075 -1.341816 -1.309163
C -1.852886 0.023047 -0.152229
C -4.056917 0.532671 0.186145
C -4.009745 -0.689921 -0.420957
H -4.906767 1.134887 0.519633
H -4.810345 -1.371431 -0.722197
C -2.213443 -2.260871 -1.162258
H -1.741253 -2.116483 -2.154407
H -1.474245 -2.712263 -0.470710
H -3.086894 -2.930369 -1.269369
C -2.391305 2.179751 1.043228
H -1.577704 1.971999 1.762894
H -2.041480 2.954970 0.335072
H -3.283234 2.547454 1.584304
N -2.743078 0.950861 0.352021
N -2.669598 -0.992903 -0.613608
N 2.319686 -0.119817 -0.087278
C 4.398564 -0.890392 0.280387
C 3.055348 -1.147792 0.471539
N 4.456763 0.312570 -0.400924
C 3.184494 0.750376 -0.607916
H 5.303161 0.796924 -0.699543
H 5.296183 -1.446499 0.566471
H 2.543125 -1.974477 0.978176
H 2.914971 1.691168 -1.100187
C 0.383542 1.883123 0.002125
N 0.739501 3.073110 0.016115
H 0.832098 3.561698 0.919945
C 0.039456 -1.514329 1.235408
C -0.025808 -2.421794 2.079493
H -0.083409 -3.181272 2.847576
