34

Ir 0.275173 -0.212593 -0.231932
H 0.182070 -0.723482 -1.895265
H 0.168965 -1.580193 -1.404216
N -1.788618 -0.168288 -0.145040
C -2.497014 0.817947 -0.758983
C -3.896676 0.813452 -0.747101
N -4.623020 -0.144922 -0.151034
C -3.912999 -1.110135 0.454012
C -2.512751 -1.139634 0.474786
H -1.913851 1.601709 -1.260851
H -4.442649 1.628305 -1.253434
H -4.472973 -1.915082 0.960348
H -1.939796 -1.924759 0.989743
N 2.464903 -0.295745 -0.304635
C 3.025512 0.073944 1.027641
C 2.925067 -1.674591 -0.637904
C 2.991544 0.642381 -1.332629
H 2.534758 -2.380279 0.116879
H 4.036712 -1.705597 -0.652639
H 2.538743 -1.960330 -1.632820
H 2.675411 1.672539 -1.091026
H 2.576984 0.373806 -2.320859
H 4.102570 0.586217 -1.365216
H 2.626574 -0.618417 1.790418
H 2.715970 1.102836 1.281672
H 4.136434 0.014735 0.998010
C 0.344784 1.659521 0.064348
N 0.376735 2.865424 0.281395
C 0.445842 3.681033 1.466235
H -0.426662 4.366082 1.505212
H 1.352235 4.321412 1.433263
H 0.466091 3.078565 2.401725
C 0.362399 -1.711719 1.188596
N 0.461404 -2.525265 2.042717
