45

Ir 0.272820 0.165533 -0.338353
H 0.429265 0.394319 -2.049809
H 0.274647 -0.527969 -2.077585
P -1.978242 0.600747 -0.368592
C -2.693842 1.067377 1.277907
C -3.073715 -0.790075 -0.920521
C -2.680670 -1.456923 -2.238980
C -2.503074 1.990923 -1.485114
C -1.765705 3.315519 -1.286813
C -2.330632 0.109567 2.415314
H -2.319858 2.091421 1.490838
H -3.794615 1.146282 1.140340
H -3.073600 -1.543304 -0.103785
H -4.099367 -0.362255 -0.968598
H -2.347369 1.610713 -2.517486
H -3.600978 2.110000 -1.352026
H -1.681891 -1.927801 -2.153935
H -3.406852 -2.255424 -2.491336
H -2.657540 -0.743571 -3.088799
H -1.901896 3.720030 -0.263558
H -0.676583 3.190305 -1.444134
H -2.138529 4.078421 -2.000114
H -2.682168 -0.925965 2.229992
H -1.230931 0.056548 2.543589
H -2.778914 0.454940 3.369064
N 2.399292 -0.291998 -0.245419
C 5.140604 -0.897584 -0.210294
C 4.178738 -1.905269 -0.049229
C 2.821194 -1.567794 -0.071337
C 3.325537 0.685581 -0.396258
C 4.699452 0.422274 -0.384806
H 6.215098 -1.135743 -0.198690
H 4.467482 -2.956440 0.095276
H 2.014243 -2.308510 0.053936
H 2.930697 1.703937 -0.524096
H 5.408584 1.252863 -0.512615
C 0.526777 1.689638 0.701912
N 0.726180 2.729515 1.316856
C 0.729707 3.110529 2.703041
H -0.023170 3.907808 2.879436
H 1.716525 3.536887 2.980259
H 0.508717 2.258653 3.383910
N -0.140200 -1.895471 0.172790
C -0.889392 -2.708793 0.645652
S -1.918206 -3.797972 1.265598
