53

Ir 1.019075 -0.111834 0.235386
H 0.913588 -0.469104 1.901473
H 0.925299 0.560392 1.860022
P -1.325683 0.001133 0.034100
C -1.701564 -2.618199 0.970523
C -2.178514 -1.635408 0.077522
C -1.925379 0.796218 -1.514085
C -1.135676 0.717930 -2.677707
C -1.600155 1.274140 -3.878190
C -2.846728 1.919391 -3.922232
C -3.630550 2.010623 -2.760571
C -3.173521 1.452379 -1.556831
C -2.138678 0.971638 1.374579
C -1.748008 2.318101 1.554048
C -2.345793 3.086087 2.562872
C -3.324789 2.524080 3.400580
C -3.710625 1.186849 3.223962
C -3.122907 0.409513 2.211949
C -3.298246 -1.918298 -0.730835
C -3.935356 -3.166172 -0.639031
C -3.464925 -4.136128 0.260016
C -2.347361 -3.859061 1.064764
H -0.807022 -2.409283 1.577249
H -0.143921 0.242659 -2.621731
H -0.974285 1.218925 -4.781874
H -3.203665 2.365554 -4.863265
H -4.602006 2.527683 -2.787461
H -3.784401 1.536720 -0.644880
H -0.974346 2.761952 0.906869
H -2.038302 4.134565 2.696306
H -3.787239 3.131299 4.194033
H -4.476743 0.740115 3.876264
H -3.433663 -0.637080 2.076412
H -3.672337 -1.164998 -1.439823
H -4.805351 -3.380332 -1.278698
H -3.965818 -5.114111 0.328620
H -1.966315 -4.619066 1.763857
P 3.329114 -0.049154 0.186470
C 6.451685 0.065604 0.094318
C 5.830207 -1.189656 0.219854
C 4.441720 -1.375643 0.274446
C 4.332428 1.356022 0.028435
C 5.729829 1.270731 0.003572
H 7.550985 0.107197 0.062279
H 6.472331 -2.084595 0.281189
H 4.017469 -2.387157 0.372563
H 3.814373 2.323759 -0.067292
H 6.297816 2.210780 -0.099479
C 1.048788 -1.743051 -0.755619
N 1.078059 -2.840327 -1.294813
H 1.075594 -3.012091 -2.306082
C 1.067941 1.876434 -0.337343
N 1.122619 3.009331 -0.667160
