38

Ir -0.141474 -0.140408 -0.309614
H -0.165337 -0.320993 -2.058494
H -0.188572 -1.220974 -1.791597
C -2.182275 -0.192931 -0.073131
C -4.209593 -0.234165 0.951697
C -4.430759 -0.331151 -0.396173
H -4.910026 -0.219050 1.791698
H -5.359833 -0.420838 -0.966549
C -2.973250 -0.386910 -2.441445
H -2.261854 0.397832 -2.763172
H -2.552753 -1.374455 -2.717468
H -3.940592 -0.244315 -2.956955
C -2.173982 -0.046328 2.425387
H -1.425051 -0.858837 2.510905
H -1.656408 0.928644 2.510959
H -2.938196 -0.139640 3.219035
N -2.837321 -0.149240 1.129462
N -3.183181 -0.297647 -1.006644
P 2.167237 -0.160009 -0.188978
C 5.296327 -0.192451 0.103051
C 4.665907 1.014435 -0.248755
C 3.281319 1.154380 -0.414848
C 3.190677 -1.496889 0.236398
C 4.582642 -1.384371 0.330951
H 6.392097 -0.204862 0.206510
H 5.298719 1.904439 -0.407079
H 2.854975 2.130182 -0.696563
H 2.677376 -2.448149 0.448964
H 5.154629 -2.286592 0.607656
C -0.180292 1.657283 0.300631
N -0.240186 2.730555 0.881846
C -0.268736 4.114932 0.502799
H 0.593506 4.650893 0.952685
H -1.186932 4.600004 0.895855
H -0.238205 4.260372 -0.600669
C -0.119967 -1.972107 0.670300
C -0.115729 -3.028640 1.317553
H -0.111493 -3.958281 1.870100
