37

Ir -0.143253 -0.128326 -0.307278
H -0.169108 -0.185081 -2.073376
H -0.196814 -1.093474 -1.875620
C -2.188474 -0.200230 -0.083330
C -4.223813 -0.379729 0.908197
C -4.434222 -0.270355 -0.440361
H -4.931150 -0.487369 1.735533
H -5.359116 -0.264844 -1.024367
C -2.961475 -0.021586 -2.459696
H -2.217974 0.776275 -2.648115
H -2.576647 -0.968265 -2.888960
H -3.917658 0.238757 -2.949333
C -2.206246 -0.425201 2.413778
H -1.573292 -1.333549 2.450790
H -1.563816 0.460486 2.577142
H -2.991401 -0.470609 3.190577
N -2.852793 -0.330444 1.107749
N -3.181680 -0.153285 -1.029212
P 2.170776 -0.150273 -0.201093
C 5.295680 -0.194151 0.083269
C 4.674816 1.000875 -0.320866
C 3.290294 1.145921 -0.486463
C 3.181312 -1.476814 0.283299
C 4.574324 -1.369061 0.368669
H 6.391640 -0.210817 0.183475
H 5.314503 1.877042 -0.522121
H 2.870624 2.111599 -0.809725
H 2.664685 -2.415890 0.539625
H 5.139774 -2.261721 0.685900
C -0.185362 1.628732 0.416355
N -0.238006 2.667095 1.051185
C -0.267481 4.077513 0.800352
H 0.604351 4.568076 1.281908
H -1.177407 4.526967 1.250313
H -0.254112 4.320463 -0.286028
C -0.094701 -2.012990 0.545914
N -0.058397 -3.050567 1.110916
