27

Ir -0.036875 -0.230181 -0.143731
H 0.037960 -0.725723 -1.782045
H -0.040237 0.237351 -1.913183
N 2.018059 -0.044364 -0.114625
C 2.600284 1.175168 -0.272920
C 3.994981 1.295422 -0.318529
N 4.831584 0.251489 -0.207824
C 4.242289 -0.942821 -0.039144
C 2.853668 -1.110112 0.006431
H 1.899503 2.024485 -0.333511
H 4.443321 2.295175 -0.450944
H 4.896084 -1.826263 0.062423
H 2.388397 -2.096881 0.133529
N -2.118770 -0.351322 -0.238438
C -4.175890 -1.191781 -0.588351
C -2.826787 -1.476995 -0.626852
N -4.263863 0.120145 -0.168456
C -3.012936 0.605942 0.037886
H -5.121639 0.655063 -0.027932
H -5.055152 -1.800404 -0.817559
H -2.312544 -2.403224 -0.899008
H -2.805354 1.627967 0.377960
C -0.022796 -1.611603 1.100882
O -0.029817 -2.528807 1.837118
N -0.159195 1.938558 0.185482
C -0.928626 2.805707 0.530282
O -1.719029 3.658970 0.856188
