40

Ir -0.347443 -0.205467 -0.228456
H -0.314146 -0.315468 -1.899748
H -0.323960 -1.292979 -1.714145
N -2.606317 -0.318497 -0.176746
C -2.961768 -0.365873 1.263078
C -3.260579 0.825872 -0.840446
C -3.028239 -1.592312 -0.809488
H -2.919517 1.770101 -0.376821
H -4.370224 0.750293 -0.759281
H -2.974578 0.844059 -1.908923
H -2.445317 -2.404627 -0.334356
H -2.797644 -1.559406 -1.890653
H -4.122685 -1.752175 -0.672580
H -2.673689 0.587757 1.742238
H -2.376181 -1.192099 1.710550
H -4.055888 -0.536366 1.393575
C 1.640717 -0.233305 -0.109180
C 3.904337 0.011957 -0.670635
C 3.795418 -0.595394 0.731866
H 4.243161 -0.736279 -1.427188
H 4.084293 0.131449 1.529046
C 1.838915 -1.494899 2.040834
H 1.885893 -0.772782 2.888759
H 0.789739 -1.814813 1.843859
H 2.447674 -2.384345 2.304468
C 2.195032 1.083485 -2.169503
H 2.245074 0.395349 -3.045805
H 1.171162 1.492582 -2.097872
H 2.910361 1.914929 -2.337666
N 2.521655 0.410564 -0.934123
N 2.368078 -0.901274 0.827908
H 4.412917 -1.506955 0.867278
H 4.592554 0.880778 -0.723790
C -0.336227 1.575697 0.296488
N -0.321564 2.794075 0.471977
C -0.372831 3.605132 1.659838
H -1.249772 4.286532 1.623633
H 0.527516 4.253413 1.720537
H -0.433502 3.004644 2.596247
F -0.635748 -2.115428 0.764388
