77

Ir -0.016209 -0.238190 0.255643
H -0.044766 -0.909470 1.849833
H -0.031981 -0.015482 2.116115
P -2.357440 -0.122006 0.107885
C -2.732305 -2.896925 0.176916
C -3.231030 -1.682215 -0.338082
C -2.914285 1.109166 -1.145088
C -2.127358 1.308935 -2.297840
C -2.520610 2.244928 -3.263860
C -3.704570 2.980898 -3.092865
C -4.492875 2.782774 -1.948201
C -4.098998 1.853844 -0.971859
C -3.176235 0.425720 1.666287
C -2.651787 1.568399 2.311996
C -3.243857 2.027984 3.496721
C -4.347066 1.353971 4.049443
C -4.862253 0.215186 3.411403
C -4.281759 -0.250416 2.219473
C -4.385656 -1.691785 -1.147054
C -5.036929 -2.903448 -1.428253
C -4.544020 -4.108872 -0.903263
C -3.391207 -4.103117 -0.100403
H -1.810754 -2.887437 0.779887
H -1.183831 0.751656 -2.409248
H -1.885763 2.413921 -4.146590
H -4.006524 3.722980 -3.847870
H -5.416016 3.365251 -1.804767
H -4.707422 1.718886 -0.064396
H -1.778674 2.081508 1.870653
H -2.835941 2.920691 3.995704
H -4.804927 1.716820 4.982765
H -5.723590 -0.318675 3.841864
H -4.690102 -1.143079 1.722121
H -4.774365 -0.749986 -1.563112
H -5.935080 -2.903868 -2.064956
H -5.055586 -5.057709 -1.127312
H -2.993641 -5.046763 0.303505
P 2.336823 -0.126177 0.150328
C 2.673586 -2.818524 0.885889
C 3.237075 -1.525304 0.952536
C 3.103639 1.382676 0.875099
C 2.533734 1.953355 2.031544
C 3.134191 3.068961 2.631872
C 4.297663 3.629689 2.079781
C 4.862635 3.070949 0.922645
C 4.268983 1.950870 0.319491
C 2.930154 -0.131429 -1.597215
C 2.508854 0.919921 -2.443589
C 2.877085 0.917652 -3.795899
C 3.653337 -0.131399 -4.320358
C 4.069084 -1.176358 -3.481924
C 3.712692 -1.177304 -2.122241
C 4.469360 -1.338499 1.612593
C 5.129443 -2.431800 2.195436
C 4.570883 -3.717602 2.119204
C 3.344443 -3.908120 1.461397
H 1.707834 -2.966136 0.379286
H 1.604602 1.533963 2.443806
H 2.679190 3.513179 3.530246
H 4.760358 4.512165 2.547998
H 5.769285 3.511449 0.480258
H 4.711238 1.521067 -0.592055
H 1.896330 1.748925 -2.054864
H 2.550177 1.744661 -4.444829
H 3.935055 -0.131543 -5.384701
H 4.678399 -2.000391 -3.884300
H 4.041626 -2.000397 -1.470540
H 4.912637 -0.333597 1.677954
H 6.087225 -2.274674 2.715073
H 5.090462 -4.572984 2.578049
H 2.899577 -4.913261 1.400519
C 0.051001 -1.514732 -1.092525
N 0.137210 -2.452783 -1.883953
H 0.182672 -2.321392 -2.901359
N -0.106669 1.954580 0.342681
C 0.113890 2.784923 -0.515660
O 0.340277 3.632854 -1.338105
