34

Ir 0.076377 0.111866 -0.272731
H 0.053816 -0.515734 -1.900642
H -0.010009 -1.329357 -1.495332
As -2.360385 -0.083480 0.007176
C -2.895852 0.115266 1.874140
C -3.077952 -1.840373 -0.457558
C -3.549416 1.164687 -0.928083
H -2.272322 -0.599123 2.445543
H -3.974019 -0.098910 2.008036
H -2.664984 1.146954 2.200490
H -2.453112 -2.571911 0.090837
H -2.964782 -2.000257 -1.546850
H -4.142489 -1.930227 -0.166782
H -3.241349 2.197370 -0.674494
H -4.606027 1.002779 -0.638596
H -3.432573 1.020861 -2.019312
C 2.124302 0.031147 -0.128763
C 4.257797 -0.776312 -0.158262
C 4.299282 0.468021 0.407078
H 5.052447 -1.503734 -0.347419
H 5.137838 1.046207 0.805613
C 2.627828 2.224239 1.008698
H 2.383178 2.969707 0.227981
H 1.742054 2.092060 1.656753
H 3.476923 2.594127 1.612425
C 2.473886 -2.294403 -1.036884
H 1.651548 -2.687584 -0.404228
H 2.114100 -2.155825 -2.075498
H 3.320734 -3.004669 -1.038314
N 2.932361 -1.029183 -0.476451
N 2.995998 0.943609 0.423090
C -0.081386 1.943920 -0.261752
O -0.280127 3.106095 -0.323257
Cl 0.030134 -1.882261 1.357128
