31

Ir 0.155365 0.082936 -0.197913
H 0.084473 -0.385374 -1.992794
H 0.025979 -1.211253 -1.787725
N -1.994312 0.055876 -0.111870
C -2.735654 1.131281 0.253983
C -4.132094 1.059095 0.322307
N -4.822565 -0.055193 0.026853
C -4.079716 -1.115114 -0.325386
C -2.679485 -1.082718 -0.391984
H -2.189208 2.054225 0.495526
H -4.707847 1.949598 0.628996
H -4.611299 -2.051740 -0.568186
H -2.076034 -1.973708 -0.622895
P 2.434049 -0.040091 -0.051272
C 3.370131 1.409652 -0.698641
C 3.186578 -1.467300 -0.933303
C 3.043347 -0.206748 1.673910
H 3.131468 1.545207 -1.771398
H 4.462915 1.270167 -0.573774
H 3.043925 2.315091 -0.151299
H 2.939086 -1.403522 -2.010929
H 2.740479 -2.389937 -0.513175
H 4.287482 -1.476190 -0.803476
H 2.697737 0.669262 2.255990
H 4.149362 -0.276346 1.708970
H 2.581630 -1.122114 2.092362
C 0.246951 1.878144 0.206794
N 0.325615 3.016275 0.687957
H 0.331084 3.843087 0.075704
S 0.176326 -2.251511 0.787821
H -0.067828 -1.873411 2.074704
