30

Ir -0.097066 -0.247529 -0.188805
H -0.201257 -0.570768 -1.883691
H -0.159576 0.370140 -1.944586
P 2.185299 -0.351301 -0.175433
C 2.949858 0.121627 1.428380
C 3.008524 0.767123 -1.381320
C 2.899066 -2.007933 -0.537720
H 2.721627 1.186469 1.631934
H 4.049516 -0.016786 1.395148
H 2.514914 -0.502030 2.232537
H 2.803378 1.817217 -1.093736
H 2.601384 0.581167 -2.393661
H 4.104101 0.597089 -1.380526
H 2.514806 -2.733276 0.205762
H 4.007026 -1.986096 -0.502421
H 2.561756 -2.331997 -1.541263
N -2.229100 0.032822 -0.121445
C -4.455839 -0.260822 -0.168456
C -3.235866 -0.893706 -0.308579
N -4.156345 1.061113 0.105983
C -2.805922 1.208508 0.129900
H -4.830217 1.809818 0.268560
H -5.482901 -0.630988 -0.237679
H -3.012574 -1.943061 -0.525085
H -2.235610 2.127822 0.322171
C -0.160825 -1.750277 0.887714
O -0.176139 -2.731763 1.539709
N 0.003711 1.917329 0.249133
C 0.894890 2.708225 0.472821
O 1.782017 3.496666 0.690781
