37

Ir 0.083309 -0.198788 0.204471
H 0.026933 -0.526022 1.854576
H 0.112194 0.506137 1.828816
P -2.245871 -0.073695 0.131060
C -5.378465 0.020968 0.062816
C -4.672571 1.204680 0.346403
C -3.276314 1.294335 0.405456
C -3.347765 -1.377218 -0.182675
C -4.738226 -1.204941 -0.193487
H -6.478256 0.056469 0.036046
H -5.253365 2.124831 0.528667
H -2.767071 2.251717 0.589990
H -2.912280 -2.366429 -0.392766
H -5.366713 -2.084469 -0.413658
C 2.137394 -0.230076 0.093538
C 4.414703 -0.293123 0.650080
C 4.242262 0.321918 -0.743425
H 4.991134 0.353954 1.342870
H 4.904955 -0.126796 -1.511225
C 2.294143 0.527180 -2.292819
H 2.853625 0.064338 -3.131714
H 1.229056 0.243675 -2.363895
H 2.369746 1.633885 -2.355190
C 2.759492 -0.927188 2.428973
H 2.865890 -0.124721 3.191626
H 1.734725 -1.335876 2.478096
H 3.474556 -1.740881 2.677311
N 3.025366 -0.438049 1.096986
N 2.831829 0.053661 -1.034775
H 4.406457 1.423912 -0.738648
H 4.911062 -1.291501 0.624454
C 0.026680 -1.691429 -0.944469
N 0.008623 -2.590416 -1.782653
H -0.039922 -3.585331 -1.528220
N 0.314303 2.013979 -0.195644
O 1.454883 2.508565 -0.191595
O -0.682169 2.715227 -0.408040
