28

Ir 0.004147 0.097756 -0.114978
H 0.104133 0.336073 -1.920984
H 0.051269 -0.544404 -1.932514
N -2.056434 0.115735 -0.140275
C -2.766349 0.643457 -1.167464
C -4.165103 0.591609 -1.176171
N -4.880004 0.048213 -0.176853
C -4.166714 -0.461824 0.836661
C -2.763925 -0.451593 0.871425
H -2.190801 1.116181 -1.975702
H -4.719842 1.019614 -2.028724
H -4.723088 -0.914010 1.675692
H -2.186950 -0.897617 1.690978
N 2.111342 0.028694 -0.106130
C 4.927113 -0.001564 -0.182756
C 4.213617 1.182631 -0.417346
C 2.817217 1.160395 -0.371456
C 2.800896 -1.118532 0.128447
C 4.198267 -1.165697 0.096012
H 6.027169 -0.014386 -0.214866
H 4.726198 2.130281 -0.636363
H 2.218684 2.064218 -0.551160
H 2.162594 -1.998375 0.339947
H 4.700685 -2.123744 0.294216
C 0.021485 1.588254 0.994648
O 0.007045 2.485683 1.755361
S -0.200019 -2.362111 0.387707
H -0.268738 -2.944024 -0.842645
