30

Ir -0.228715 -0.066432 -0.227723
H -0.296502 -0.140632 -1.969215
H -0.309238 0.813279 -1.813592
As 2.146322 0.026571 -0.081337
C 2.771117 0.336326 1.740177
C 2.971149 1.480664 -1.090043
C 3.149468 -1.560575 -0.632223
H 2.300888 1.275145 2.089865
H 3.875426 0.409378 1.779250
H 2.414651 -0.500469 2.370294
H 2.508231 2.422654 -0.738782
H 2.746176 1.345793 -2.165054
H 4.066570 1.501600 -0.929226
H 2.789187 -2.414847 -0.027943
H 4.236670 -1.416612 -0.477399
H 2.940122 -1.764005 -1.699467
N -2.368839 -0.007445 -0.151254
C -4.543309 -0.553529 -0.315051
C -3.254236 -0.986087 -0.558613
N -4.411261 0.702166 0.247481
C -3.089253 1.004884 0.336074
H -5.172076 1.309163 0.553750
H -5.516339 -1.021811 -0.489611
H -2.898246 -1.925170 -0.992685
H -2.665787 1.931655 0.744119
C -0.202719 -1.698617 0.709836
N -0.153683 -2.651763 1.494792
H -0.182953 -3.617756 1.139265
C -0.182980 1.854518 0.539292
N -0.176188 2.923547 1.047340
