43

Ir 0.175276 -0.429559 0.213050
H 0.242718 -1.032809 1.846975
H 0.134983 -0.146468 2.081298
P -2.165102 -0.579634 0.096157
C -2.810717 -0.597714 -1.640870
C -3.096702 0.813568 0.886978
C -2.695342 1.139955 2.325658
C -2.927049 -2.085025 0.872568
C -2.309914 -3.420204 0.454298
C -2.264471 0.528585 -2.522123
H -2.532991 -1.589699 -2.057003
H -3.920828 -0.570747 -1.575743
H -2.948949 1.706405 0.242719
H -4.171006 0.533994 0.814353
H -2.826646 -1.936173 1.968929
H -4.014976 -2.047434 0.643857
H -1.640248 1.474262 2.368059
H -3.323825 1.965006 2.716471
H -2.814509 0.274382 3.009775
H -2.375565 -3.588150 -0.639728
H -1.237943 -3.465763 0.729902
H -2.831234 -4.262722 0.952114
H -2.518123 1.536146 -2.134252
H -1.159233 0.473217 -2.583163
H -2.674984 0.446488 -3.548657
As 2.572847 0.096490 0.101707
C 3.187311 1.266821 1.539553
C 3.014058 1.113886 -1.504161
C 3.879210 -1.360333 0.087789
H 2.505215 2.138214 1.557773
H 4.231157 1.594473 1.369274
H 3.110133 0.726027 2.501942
H 2.334722 1.986791 -1.534893
H 2.821017 0.477222 -2.388214
H 4.071419 1.442577 -1.491630
H 3.789984 -1.929824 1.032414
H 4.909080 -0.967904 -0.020516
H 3.641453 -2.035277 -0.756783
C 0.351070 -1.807250 -1.006409
O 0.464488 -2.694765 -1.771570
N -0.017375 1.717701 0.137898
C -0.601869 2.721277 -0.169616
S -1.417020 4.064811 -0.565219
