45

Ir 0.248579 -0.399281 0.233010
H 0.306662 -0.779974 1.924157
H 0.141019 0.125305 2.045696
P -2.131151 -0.470580 0.200581
C -2.849345 -0.783742 -1.480168
C -2.994737 1.077286 0.746064
C -2.541844 1.637989 2.094302
C -2.929035 -1.767008 1.268703
C -2.381113 -3.185438 1.106292
C -2.294699 0.134316 -2.572819
H -2.625235 -1.846476 -1.713301
H -3.954216 -0.696058 -1.387861
H -2.834861 1.835332 -0.049848
H -4.079828 0.832709 0.749285
H -2.788003 -1.415038 2.313130
H -4.021550 -1.725409 1.064193
H -1.470273 1.915750 2.056010
H -3.117412 2.553176 2.338842
H -2.685604 0.918511 2.926916
H -2.485682 -3.559619 0.068137
H -1.303907 -3.227356 1.361383
H -2.921006 -3.889525 1.771533
H -2.490414 1.207100 -2.370543
H -1.195884 0.017175 -2.659564
H -2.749557 -0.115058 -3.552783
C 2.300152 -0.076563 0.171991
C 4.335846 0.854419 0.609959
C 4.507178 -0.047251 -0.403395
H 5.049890 1.516278 1.108454
H 5.400949 -0.331291 -0.966272
C 3.030324 -1.573302 -1.718888
H 2.803305 -2.572766 -1.302333
H 2.178232 -1.250717 -2.344818
H 3.939854 -1.638258 -2.343456
C 2.410244 1.683161 1.974532
H 1.502257 2.169422 1.569527
H 2.142281 1.090458 2.871769
H 3.153470 2.451625 2.254612
N 2.990616 0.828210 0.945919
N 3.260886 -0.601062 -0.660569
C 0.228699 -1.968177 -0.737953
O 0.108657 -2.988525 -1.318359
N 0.068100 1.714227 -0.171356
C -0.483499 2.653798 -0.676305
S -1.262705 3.918730 -1.326770
