32

Ir 0.038606 0.107069 0.132454
H 0.209656 0.043664 1.934786
H 0.168863 -0.831045 1.838337
N 2.188429 0.058979 0.095549
C 2.860376 -1.078185 0.415973
C 4.261877 -1.099948 0.450202
N 5.022322 -0.032228 0.163737
C 4.347208 1.080273 -0.171718
C 2.949227 1.142575 -0.203467
H 2.234621 -1.972351 0.584607
H 4.781046 -2.035480 0.722636
H 4.936792 1.978266 -0.425667
H 2.419608 2.069793 -0.464121
C -1.978046 0.027518 0.135392
C -4.166329 0.020873 0.769349
C -4.124966 -0.197865 -0.581030
H -5.011963 0.088285 1.459805
H -4.929410 -0.360335 -1.304117
C -2.305771 -0.402859 -2.307342
H -1.700171 0.461373 -2.639887
H -1.669050 -1.311862 -2.307828
H -3.174891 -0.532598 -2.977997
C -2.463467 0.441180 2.563395
H -2.056306 -0.467495 3.050741
H -1.684543 1.227339 2.577431
H -3.349906 0.788350 3.125215
N -2.850690 0.168689 1.189671
N -2.789571 -0.181704 -0.951341
C -0.070078 1.748343 -0.699248
O -0.196857 2.760992 -1.292474
S 0.001426 -2.344664 -0.559505
H 0.551390 -2.151061 -1.793365
