41

Ir -0.169857 0.287236 0.012701
H -0.283240 1.588013 -1.041538
H -0.133269 0.862662 -1.705001
C -2.212898 -0.049088 -0.155947
C -4.451265 0.213873 -0.515861
C -4.244433 -1.079715 -0.116210
H -5.368814 0.741248 -0.793079
H -4.948085 -1.904389 0.031313
C -2.247938 -2.432155 0.603714
H -2.931531 -3.286909 0.446433
H -1.295891 -2.582862 0.052562
H -2.031446 -2.325725 1.686239
C -2.980565 2.215530 -0.891400
H -2.254449 2.664447 -0.187928
H -2.567587 2.291715 -1.918107
H -3.939301 2.764625 -0.843202
N -3.205629 0.827358 -0.524630
N -2.881701 -1.219573 0.099357
C 1.896486 0.417972 0.141431
C 4.082074 -0.411406 0.376851
C 4.147650 0.964686 -0.298758
H 4.760290 -0.504315 1.250461
H 4.694842 0.946123 -1.264316
C 2.363882 2.497301 -1.183219
H 2.409925 2.387912 -2.289737
H 1.337532 2.785981 -0.893872
H 3.056588 3.314160 -0.886046
C 2.234093 -1.646428 1.534066
H 2.750198 -1.675808 2.518315
H 1.142659 -1.573324 1.688274
H 2.463327 -2.582084 0.979872
N 2.675616 -0.492240 0.782515
N 2.729850 1.279945 -0.501062
H 4.624132 1.741412 0.344716
H 4.302061 -1.243368 -0.329835
C -0.376848 0.755309 1.801969
N -0.534801 1.249580 2.922552
H -0.504893 0.662915 3.766387
N 0.232332 -1.646527 -1.023322
C 1.245249 -2.218204 -1.364404
O 2.244174 -2.818177 -1.683895
