30

Ir 0.050918 0.097093 0.165476
H -0.033135 0.022264 1.970487
H -0.056039 -0.855060 1.869929
P 2.328947 0.023003 0.093565
C 3.023960 -0.386374 -1.558526
C 3.081591 -1.231288 1.207102
C 3.193572 1.586080 0.546742
H 2.611886 -1.371980 -1.849479
H 4.131914 -0.421102 -1.533535
H 2.684269 0.374518 -2.287358
H 2.665586 -2.216480 0.917960
H 2.793987 -1.010239 2.253388
H 4.186336 -1.233198 1.114451
H 2.862890 2.392986 -0.135994
H 4.294550 1.471035 0.482628
H 2.907009 1.869467 1.578049
N -2.097956 -0.013893 0.095933
C -4.407198 0.524590 0.131146
O -4.158112 -0.894798 -0.109842
C -2.830838 -1.056180 -0.120720
C -2.996602 1.134029 0.313776
H -2.820619 1.551692 1.326035
H -2.760966 1.932886 -0.418135
H -5.054549 0.607047 1.026472
H -4.955971 0.923355 -0.745651
H -2.401800 -2.055864 -0.319871
C 0.059038 1.798288 -0.551313
O 0.086713 2.868632 -1.048497
S 0.154942 -2.349426 -0.544947
H 0.126454 -2.120031 -1.889429
