27

Ir 0.323927 -0.086437 -0.183380
H 0.426440 -0.490059 -1.862375
H 0.428994 0.518925 -1.852083
N 2.465092 0.008492 -0.139326
C 4.635035 -0.534164 -0.344541
C 3.343474 -0.991504 -0.512718
N 4.511420 0.755530 0.136139
C 3.193044 1.057816 0.252252
H 5.277203 1.388008 0.371113
H 5.604673 -1.008293 -0.521735
H 2.984015 -1.960833 -0.871422
H 2.776211 2.009549 0.606345
P -1.927306 -0.008862 -0.116259
C -5.044018 0.125496 -0.035041
C -4.430290 -1.130916 -0.181806
C -3.042979 -1.327501 -0.235654
C -2.915906 1.402049 0.062972
C -4.313923 1.323283 0.080437
H -6.142936 0.174005 -0.005601
H -5.077134 -2.020773 -0.261792
H -2.627251 -2.340060 -0.354903
H -2.392760 2.364289 0.177582
H -4.874993 2.265558 0.198797
C 0.358441 -1.680228 0.856601
O 0.391971 -2.650903 1.509560
C 0.330475 1.881891 0.453162
N 0.419039 2.998571 0.830300
