29

Ir -0.092017 0.153325 -0.226493
H -0.140784 0.342102 -1.899618
H -0.119293 -0.653757 -1.871535
N -2.192372 -0.039876 -0.081925
C -2.665681 -1.235437 0.353379
C -4.046052 -1.439586 0.469271
N -4.958623 -0.499004 0.168484
C -4.467635 0.675898 -0.254494
C -3.094535 0.923201 -0.385971
H -1.878261 -1.977893 0.595089
H -4.421750 -2.414854 0.824062
H -5.190951 1.471050 -0.506274
H -2.696619 1.888252 -0.731845
As 2.261153 -0.196205 0.005890
C 3.544169 1.226693 -0.377416
C 2.849196 -1.734951 -1.033585
C 2.622709 -0.743604 1.839032
H 3.464328 1.504597 -1.445555
H 4.576048 0.895845 -0.149434
H 3.284012 2.107641 0.240208
H 2.764010 -1.505805 -2.112442
H 2.131067 -2.533403 -0.764139
H 3.886902 -2.024682 -0.778426
H 2.458754 0.117054 2.513935
H 3.650228 -1.139948 1.952166
H 1.860242 -1.523285 2.032275
C -0.027512 1.848156 0.515706
O 0.033037 2.958062 0.904389
F 0.038229 -1.877639 0.527836
