28

Ir -0.185877 -0.101195 0.241215
H -0.288288 -0.669751 1.809915
H -0.317989 0.375512 1.955412
N -2.312979 0.095768 0.052936
C -3.186017 -0.902544 0.323613
C -4.564666 -0.698174 0.178759
N -5.087606 0.469401 -0.226540
C -4.202993 1.445378 -0.492012
C -2.817238 1.282728 -0.360919
H -2.763246 -1.862706 0.654214
H -5.264589 -1.521760 0.403042
H -4.605822 2.415011 -0.832399
H -2.036366 2.051531 -0.554780
P 2.057685 0.033577 0.078584
C 5.140726 0.392514 -0.209620
C 4.307314 1.501985 -0.452884
C 2.912008 1.475743 -0.357219
C 3.281506 -1.166739 0.319813
C 4.643017 -0.871054 0.154265
H 6.229064 0.519183 -0.311400
H 4.781914 2.455112 -0.742151
H 2.274966 2.349029 -0.566678
H 2.963543 -2.181317 0.605721
H 5.367039 -1.686207 0.322006
C -0.208941 -1.707221 -0.735669
O -0.238510 -2.743882 -1.282486
O -0.121506 2.005659 -0.230841
H -0.037018 2.478653 0.617870
