34

Ir -0.092540 -0.230964 -0.222542
H -0.251363 -0.346953 -1.921917
H -0.257547 0.614886 -1.854448
C 1.918757 -0.233210 -0.297758
C 4.141476 -0.599465 0.069887
C 4.039315 0.431465 -0.820491
H 5.018721 -1.076845 0.515452
H 4.809405 1.036047 -1.307830
C 2.179456 1.709460 -1.894479
H 1.796836 1.293543 -2.848008
H 1.363520 2.242275 -1.368538
H 3.006567 2.410889 -2.108767
C 2.557588 -2.025764 1.365362
H 1.797256 -1.662328 2.080642
H 2.176825 -2.945244 0.881637
H 3.489176 -2.262127 1.911329
N 2.847193 -0.990051 0.384953
N 2.686181 0.649512 -1.031319
N -2.258775 0.017980 -0.112788
C -5.038566 0.420409 -0.050859
C -4.501594 -0.827740 -0.397773
C -3.112340 -0.989450 -0.417989
C -2.773886 1.225421 0.225969
C -4.152458 1.459909 0.266144
H -6.127575 0.578474 -0.026742
H -5.146764 -1.680839 -0.652575
H -2.651194 -1.952074 -0.681782
H -2.013964 1.990483 0.466466
H -4.517541 2.458259 0.547946
C -0.272159 -1.914050 0.526427
O -0.522201 -2.998677 0.919158
N 0.091672 1.802396 0.566843
C 0.744986 2.397632 1.403101
O 1.357930 3.048581 2.203812
