36

Ir 0.083283 0.148070 -0.084856
H 0.032830 0.716756 -1.854221
H 0.080014 -0.064229 -2.178035
As -2.367227 0.061458 -0.049717
C -3.148707 -1.126388 1.299759
C -3.218790 -0.599877 -1.684317
C -3.339221 1.734481 0.293297
H -2.773591 -2.147230 1.097813
H -4.255136 -1.109194 1.252280
H -2.805414 -0.803196 2.300861
H -2.745174 -1.577173 -1.902193
H -3.003787 0.103663 -2.511446
H -4.312970 -0.709337 -1.554036
H -2.941797 2.185364 1.222894
H -4.429099 1.560997 0.386055
H -3.139634 2.433780 -0.541270
C 2.124485 0.024269 -0.043406
C 4.333989 0.369274 -0.495388
C 4.252690 -0.616365 0.452360
H 5.200623 0.826484 -0.981894
H 5.036137 -1.189841 0.956616
C 2.380632 -1.766512 1.679788
H 3.218416 -2.177879 2.272883
H 1.653778 -1.260405 2.343465
H 1.844573 -2.567531 1.130774
C 2.670553 1.796024 -1.725260
H 2.388925 1.360107 -2.705679
H 1.803474 2.357841 -1.329210
H 3.530483 2.477909 -1.863027
N 3.030556 0.756300 -0.775793
N 2.905682 -0.804911 0.720890
C 0.109737 1.494605 1.168930
N 0.118024 2.419486 1.988563
H 0.117988 2.247305 3.001400
S -0.105665 -2.359648 -0.636398
H -0.476326 -2.792544 0.602705
