28

Ir -0.054581 -0.232570 -0.178249
H -0.045590 -0.465793 -1.853353
H -0.012834 0.530839 -1.834781
N 2.026152 -0.311420 -0.184572
C 4.120628 -1.120972 -0.340471
C 2.782733 -1.457010 -0.373497
N 4.154471 0.242973 -0.129499
C 2.880903 0.708401 -0.036998
H 4.989425 0.823537 -0.048571
H 5.025753 -1.725452 -0.447717
H 2.305509 -2.432114 -0.507633
H 2.628268 1.760171 0.146078
N -2.098290 -0.081063 -0.169287
C -4.247616 0.892538 -0.158810
O -4.284782 -0.549244 0.094832
C -3.009682 -0.951457 0.129984
C -2.785944 1.175029 -0.546645
H -2.303133 2.013521 -0.007084
H -2.635670 1.341439 -1.634426
H -4.556248 1.399401 0.779394
H -4.986007 1.117010 -0.951630
H -2.809462 -1.995454 0.410472
C -0.119175 -1.793230 0.824714
N -0.178200 -2.921325 1.331344
H -0.160796 -3.025467 2.355817
N -0.034375 1.874449 0.473414
C 0.718470 2.805280 0.640913
O 1.488945 3.722928 0.809381
