53

Ir -1.171946 -0.000574 0.210021
H -1.216914 -0.055136 1.987096
H -1.239755 0.858855 1.871633
N -3.335302 0.016851 0.206720
C -4.041398 -1.114070 0.451400
C -5.441391 -1.089364 0.506109
N -6.157888 0.031815 0.329426
C -5.445183 1.142508 0.083787
C -4.044794 1.155500 0.015647
H -3.461536 -2.036120 0.600385
H -5.994968 -2.023312 0.705664
H -6.003960 2.081842 -0.070703
H -3.453323 2.060201 -0.203850
P 1.117550 0.002999 0.070854
C 1.499330 -2.502143 1.305803
C 1.974068 -1.174687 1.213574
C 1.975843 1.603687 0.400796
C 1.475819 2.467232 1.395376
C 2.155683 3.653364 1.704880
C 3.332393 3.993900 1.017135
C 3.828794 3.141577 0.018518
C 3.155665 1.948337 -0.289217
C 1.718771 -0.468913 -1.608662
C 1.110481 0.159983 -2.717364
C 1.535940 -0.155023 -4.015419
C 2.556390 -1.101441 -4.218509
C 3.158101 -1.728344 -3.116810
C 2.744895 -1.411661 -1.811254
C 3.087738 -0.783928 1.985405
C 3.717194 -1.707376 2.836419
C 3.247845 -3.026959 2.918161
C 2.140536 -3.421590 2.148144
H 0.625855 -2.815461 0.715101
H 0.538384 2.215882 1.912731
H 1.754309 4.323854 2.480080
H 3.859746 4.930547 1.255422
H 4.745844 3.406168 -0.530100
H 3.548743 1.285532 -1.074796
H 0.303438 0.892225 -2.547515
H 1.062067 0.339662 -4.877355
H 2.881502 -1.351757 -5.240277
H 3.955453 -2.471860 -3.270183
H 3.218790 -1.905780 -0.949772
H 3.465609 0.247228 1.925767
H 4.581462 -1.388512 3.439268
H 3.742824 -3.749252 3.585601
H 1.765096 -4.454737 2.208095
C -1.177129 -1.672451 -0.653459
N -1.180115 -2.746988 -1.260381
H -1.116149 -2.780210 -2.288139
C -1.155346 1.927037 -0.533756
C -1.150312 3.041733 -1.078615
H -1.132404 4.016200 -1.547509
