28

Ir -0.189985 -0.412088 -0.183522
H -0.269899 -0.807195 -1.822590
H -0.083160 0.178021 -1.895832
N 1.852038 -0.810385 -0.218769
C 3.800655 -1.929151 -0.327659
C 2.427927 -2.067614 -0.310003
N 4.036413 -0.571065 -0.246479
C 2.848457 0.083510 -0.180399
H 4.947664 -0.112329 -0.229913
H 4.605522 -2.666981 -0.390119
H 1.812059 -2.970935 -0.345669
H 2.755412 1.175587 -0.090477
N -2.190625 0.050470 -0.161689
C -4.187882 1.310986 -0.226969
O -4.419896 -0.092520 0.119277
C -3.214759 -0.666503 0.177827
C -2.694408 1.372758 -0.598104
H -2.117718 2.164482 -0.082372
H -2.506735 1.478138 -1.687292
H -4.442530 1.917113 0.666979
H -4.876958 1.575113 -1.051457
H -3.162056 -1.712685 0.511991
C -0.460873 -1.845449 0.970104
N -0.679695 -2.899725 1.576974
H -0.650484 -2.927874 2.605494
N 0.216897 1.690285 0.269860
C 1.012029 2.580662 0.402171
S 2.134053 3.745515 0.562945
