74

Ir 0.014302 -0.166131 0.249416
H 0.030133 -0.082450 2.078145
H 0.036051 0.773280 2.001173
P -2.333792 -0.041102 0.108542
C -2.743400 -2.658457 1.020217
C -3.196614 -1.673132 0.117419
C -2.912216 0.770558 -1.438752
C -2.148081 0.602728 -2.611666
C -2.588931 1.159924 -3.819657
C -3.784088 1.897675 -3.863625
C -4.540334 2.076382 -2.694391
C -4.108140 1.514433 -1.482117
C -3.169156 0.893030 1.465449
C -2.700395 2.190413 1.771557
C -3.312915 2.928419 2.794339
C -4.385669 2.384476 3.521514
C -4.849891 1.095047 3.219667
C -4.246856 0.348624 2.193725
C -4.292567 -1.954074 -0.722601
C -4.928055 -3.204584 -0.655038
C -4.480645 -4.177490 0.252422
C -3.387669 -3.901446 1.091123
H -1.868762 -2.445300 1.655362
H -1.198493 0.047270 -2.559888
H -1.986146 1.027838 -4.731327
H -4.123042 2.342814 -4.811887
H -5.472325 2.661749 -2.722246
H -4.698896 1.662678 -0.565084
H -1.855564 2.611471 1.198092
H -2.944063 3.939597 3.026120
H -4.860246 2.967119 4.326321
H -5.689393 0.661850 3.785169
H -4.618222 -0.660691 1.962141
H -4.647551 -1.195937 -1.436606
H -5.778234 -3.419115 -1.320721
H -4.979704 -5.157580 0.301091
H -3.026255 -4.664095 1.797864
P 2.359139 -0.052884 0.067954
C 2.743581 -2.520669 1.401215
C 3.354877 -1.335835 0.946005
C 3.090423 1.510541 0.712930
C 3.043335 1.725420 2.106496
C 3.559182 2.906795 2.654896
C 4.121758 3.885338 1.817551
C 4.167116 3.674531 0.431343
C 3.652024 2.491999 -0.123692
C 2.873470 -0.162545 -1.700040
C 2.174840 0.638275 -2.633430
C 2.502551 0.567790 -3.994693
C 3.506671 -0.309193 -4.440443
C 4.188989 -1.114666 -3.516448
C 3.878359 -1.042082 -2.148153
C 4.737353 -1.140206 1.164088
C 5.495049 -2.124399 1.814842
C 4.881484 -3.308756 2.257853
C 3.507060 -3.503487 2.051675
H 1.662727 -2.662342 1.252658
H 2.599471 0.963329 2.766276
H 3.518573 3.066405 3.743358
H 4.523296 4.815412 2.248364
H 4.602631 4.439085 -0.230132
H 3.685259 2.336878 -1.211637
H 1.377694 1.315060 -2.278511
H 1.959323 1.199248 -4.714856
H 3.752949 -0.369110 -5.511894
H 4.969231 -1.811448 -3.859571
H 4.414319 -1.683593 -1.433408
H 5.219327 -0.208676 0.828820
H 6.571315 -1.963326 1.981304
H 5.477429 -4.078800 2.771697
H 3.019891 -4.425542 2.403988
C 0.016140 -1.817326 -0.550854
O 0.021175 -2.865251 -1.084583
Cl 0.021447 2.308029 -0.375312
