34

Ir -0.249485 -0.131198 0.245938
H -0.252638 -0.311083 1.991941
H -0.215969 0.633117 1.912267
P -2.554859 0.095048 0.037497
C -3.093711 0.449945 -1.681888
C -3.257543 1.483309 1.014733
C -3.569404 -1.361378 0.527518
H -2.538001 1.345718 -2.021787
H -4.187693 0.622093 -1.740884
H -2.808780 -0.404271 -2.325863
H -2.718140 2.403277 0.715278
H -3.072308 1.299223 2.090830
H -4.345694 1.595857 0.834294
H -3.254952 -2.234259 -0.077647
H -4.651966 -1.173423 0.376721
H -3.375476 -1.593683 1.592667
As 2.184511 0.038789 0.035902
C 3.277086 -1.516535 0.516643
C 2.989516 1.488239 1.069969
C 2.777253 0.433342 -1.782354
H 3.112056 -1.751244 1.585487
H 4.351935 -1.321204 0.333740
H 2.940922 -2.379213 -0.090276
H 2.826636 1.292832 2.146995
H 2.459189 2.417169 0.785620
H 4.072962 1.575072 0.857930
H 2.496026 -0.415593 -2.433815
H 3.871418 0.600936 -1.820198
H 2.226928 1.336165 -2.109120
C -0.276448 -1.861544 -0.499429
O -0.294700 -2.919940 -1.012732
C -0.192377 1.809193 -0.492970
C -0.156095 2.953449 -0.971689
H -0.124131 3.950424 -1.389907
