35

Ir -0.102426 -0.245136 -0.103070
H -0.266404 -1.056661 -1.572779
H -0.194124 -0.129316 -1.920512
C 1.899984 -0.341666 -0.096939
C 4.080083 0.065804 0.422587
C 4.067612 -0.790346 -0.644217
H 4.912997 0.511904 0.973701
H 4.886987 -1.244654 -1.208850
C 2.289861 -1.912706 -2.014327
H 1.501009 -2.590477 -1.636759
H 1.874254 -1.325726 -2.858004
H 3.150393 -2.507076 -2.372335
C 2.362338 1.194381 1.849344
H 1.292702 1.018242 2.062231
H 2.972353 0.956111 2.742445
H 2.500142 2.256912 1.566726
N 2.757136 0.321733 0.750112
N 2.734042 -1.037103 -0.942964
N -2.270556 -0.041662 -0.093313
C -5.065766 0.222121 -0.174435
C -4.469075 -1.023422 0.070311
C -3.073428 -1.115454 0.103635
C -2.842818 1.165451 -0.322435
C -4.231312 1.331986 -0.370488
H -6.161130 0.325261 -0.209369
H -5.073082 -1.927120 0.236802
H -2.560820 -2.068429 0.300496
H -2.120099 1.989894 -0.457240
H -4.644874 2.333056 -0.561198
C -0.168550 -1.402101 1.351422
N -0.258185 -2.309499 2.185475
H -0.233223 -2.100875 3.192657
N 0.000462 1.927227 -0.264528
C 0.748129 2.878960 -0.234576
O 1.465881 3.846435 -0.178045
