32

Ir 0.164367 -0.104523 -0.279473
H 0.265285 0.070418 -1.947831
H 0.298441 -0.938319 -1.888069
P -2.067898 -0.173597 -0.126698
C -5.142522 -0.535499 0.245632
C -4.663237 0.702335 -0.216599
C -3.306983 0.997138 -0.427401
C -2.902330 -1.588280 0.426667
C -4.294426 -1.619715 0.550112
H -6.227807 -0.663090 0.375988
H -5.398708 1.496686 -0.429650
H -3.004098 1.990607 -0.792579
H -2.251081 -2.440220 0.677707
H -4.756408 -2.554505 0.911223
N 2.280997 -0.310023 -0.082258
C 5.028322 -0.732609 0.235690
C 4.099930 -1.711542 0.621623
C 2.732772 -1.473391 0.450188
C 3.167715 0.642139 -0.455972
C 4.547575 0.465557 -0.313478
H 6.109130 -0.899501 0.360256
H 4.425448 -2.666887 1.058472
H 1.916391 -2.178185 0.713892
H 2.736696 1.562140 -0.876929
H 5.230456 1.266048 -0.632759
C 0.222340 1.614025 0.482627
N 0.288363 2.717060 0.990900
C 0.379070 4.095730 0.619651
H -0.500632 4.653350 1.004617
H 0.431467 4.240005 -0.483327
H 1.277351 4.558879 1.079381
F 0.068376 -2.092198 0.512948
