32

Ir 0.215533 0.137460 -0.317554
H 0.281882 -0.384937 -2.095577
H 0.315301 -1.190443 -1.829502
As -2.157481 0.103530 -0.189571
C -2.838102 -0.138377 1.626699
C -3.026832 -1.345202 -1.173531
C -3.118191 1.697445 -0.803489
H -2.361536 -1.055694 2.022929
H -3.942005 -0.228891 1.631968
H -2.520175 0.727630 2.237578
H -2.578141 -2.289694 -0.809637
H -2.807496 -1.228105 -2.251977
H -4.121216 -1.336435 -1.004397
H -2.712180 2.577653 -0.269633
H -4.205511 1.602543 -0.615659
H -2.930641 1.828597 -1.886152
N 2.348245 0.074661 -0.258109
C 4.519120 0.632129 -0.448384
C 3.224856 1.071456 -0.646939
N 4.400939 -0.645765 0.066673
C 3.081004 -0.954156 0.173098
H 5.169023 -1.263499 0.329707
H 5.487631 1.108393 -0.627080
H 2.859033 2.028861 -1.030752
H 2.653726 -1.893319 0.554633
C 0.227236 1.908929 0.163505
N 0.255953 3.106375 0.431734
C 0.246815 3.859350 1.656992
H 0.184153 3.212951 2.561230
H -0.611895 4.564191 1.668165
H 1.165866 4.478504 1.734148
Br 0.066960 -2.382729 0.726220
