47

Ir 0.320585 -0.013950 -0.381160
H 0.287071 -0.145109 -2.128459
H 0.171948 -1.037507 -1.992497
P -2.022871 0.159712 -0.198525
C -2.596784 0.893863 1.408162
C -2.973328 -1.434502 -0.283846
C -2.635772 -2.320922 -1.483951
C -2.881728 1.202695 -1.476306
C -2.281315 2.593552 -1.685877
C -1.947702 0.266664 2.644663
H -2.356728 1.976915 1.348226
H -3.705352 0.808229 1.435171
H -2.768870 -1.980479 0.660528
H -4.049862 -1.154538 -0.269441
H -2.831676 0.614344 -2.417551
H -3.955582 1.257075 -1.190671
H -1.573926 -2.634179 -1.443075
H -3.262318 -3.235648 -1.474349
H -2.810814 -1.808287 -2.452469
H -2.316416 3.206751 -0.762688
H -1.217565 2.523720 -1.987131
H -2.835167 3.143716 -2.473639
H -2.147821 -0.820855 2.725866
H -0.846213 0.388585 2.605273
H -2.322488 0.750352 3.569642
P 2.632933 -0.325330 -0.234623
C 3.171047 -0.551609 1.507479
C 3.720870 1.011321 -0.878414
C 3.212439 -1.854488 -1.070969
H 2.953867 0.376298 2.071061
H 4.249675 -0.797828 1.582197
H 2.557164 -1.370699 1.930364
H 3.443156 1.962119 -0.382614
H 3.540373 1.128462 -1.964701
H 4.793016 0.791636 -0.699923
H 2.582562 -2.681105 -0.686373
H 4.284311 -2.055116 -0.871626
H 3.044355 -1.759586 -2.161447
C 0.495430 1.730238 0.236273
N 0.612028 2.895753 0.595606
C 0.676790 3.565776 1.865144
H -0.177771 4.267656 1.971805
H 1.600566 4.178376 1.931548
H 0.658346 2.860228 2.726439
N 0.259405 -2.038412 0.462161
C -0.391696 -2.631339 1.294395
O -1.041673 -3.252995 2.097771
