35

Ir 0.093718 -0.085906 -0.166702
H 0.210275 -0.397926 -2.011484
H 0.246628 -1.237531 -1.923233
As -2.279213 -0.132071 -0.073057
C -3.045587 -0.594130 1.665996
C -3.152495 -1.405159 -1.273937
C -3.204282 1.550894 -0.479244
H -2.679042 -1.605473 1.922322
H -4.152259 -0.576415 1.624697
H -2.676510 0.132177 2.414530
H -2.756823 -2.405830 -1.015423
H -2.880093 -1.159568 -2.318109
H -4.252487 -1.371794 -1.149400
H -2.854225 2.319433 0.236162
H -4.302174 1.429332 -0.398256
H -2.932908 1.869284 -1.503740
N 2.257029 -0.161323 -0.074900
C 5.071962 -0.255669 -0.018443
C 4.303754 -1.380826 0.313292
C 2.907715 -1.299127 0.275409
C 2.999892 0.927863 -0.396386
C 4.398215 0.920208 -0.379181
H 6.171856 -0.293058 0.002701
H 4.774837 -2.331184 0.604631
H 2.242755 -2.151716 0.517784
H 2.432734 1.827032 -0.675106
H 4.944401 1.835324 -0.650491
C 0.083691 1.686701 0.356139
N 0.036750 2.799495 0.871119
C 0.086659 4.151733 0.393381
H 0.897457 4.712980 0.904846
H -0.861862 4.679780 0.631887
H 0.251986 4.219565 -0.706287
S -0.149640 -2.531556 0.534115
H -0.186152 -2.298555 1.877380
