43

Ir 0.406889 0.033594 -0.165281
H 0.432634 -0.310279 -2.030734
H 0.523163 -1.141409 -2.060081
P -1.853950 0.005841 -0.011159
C -2.778181 0.997780 -1.291034
C -2.497373 0.697165 1.588611
C -1.894562 0.042999 2.833093
C -2.712649 -1.637732 -0.130434
C -2.474978 -2.408108 -1.428879
C -2.341971 2.453024 -1.458778
H -2.640891 0.445955 -2.244931
H -3.858039 0.924293 -1.033466
H -2.243574 1.777673 1.569997
H -3.606032 0.613312 1.570493
H -2.324277 -2.229789 0.723428
H -3.794116 -1.439930 0.040146
H -0.791270 0.152841 2.825626
H -2.286189 0.519121 3.754893
H -2.127019 -1.039888 2.889756
H -2.788356 -1.840052 -2.328762
H -1.402173 -2.665932 -1.526971
H -3.048421 -3.357464 -1.421438
H -2.453260 3.033059 -0.520227
H -1.277064 2.507966 -1.759684
H -2.951415 2.956051 -2.237187
N 2.717093 0.072195 -0.164955
C 3.219584 1.320361 -0.779325
C 3.136885 0.003968 1.255464
C 3.283241 -1.085081 -0.895732
H 2.714423 0.865252 1.805442
H 4.249360 0.018532 1.334910
H 2.739177 -0.932992 1.690253
H 2.990225 -1.029189 -1.960974
H 2.877657 -2.016619 -0.455173
H 4.395218 -1.080258 -0.824053
H 2.839902 2.192900 -0.218028
H 2.859218 1.389671 -1.822801
H 4.334559 1.338347 -0.772971
C 0.376807 1.796445 0.342897
N 0.375707 2.869373 0.965814
H 0.348183 3.764238 0.459752
S 0.558693 -2.352965 0.606612
H 0.277693 -2.118205 1.919739
