27

Ir -0.032643 0.076096 -0.198570
H -0.037967 0.284832 -1.870197
H -0.024169 -0.724318 -1.848709
N -2.091409 -0.107582 -0.115850
C -4.315149 0.180554 -0.176270
C -3.098457 0.776472 -0.449916
N -4.011484 -1.071672 0.328536
C -2.660593 -1.220513 0.356971
H -4.683219 -1.774522 0.636117
H -5.343109 0.535001 -0.296071
H -2.872784 1.770542 -0.847807
H -2.034528 -2.067129 0.698203
N 2.005995 0.013704 -0.096332
C 4.093462 -0.911365 0.456115
O 4.212781 0.195700 -0.499643
C 2.952727 0.557612 -0.787951
C 2.641687 -0.831934 0.942756
H 2.528969 -0.309667 1.916886
H 2.058344 -1.779261 0.995232
H 4.856439 -0.764278 1.243255
H 4.317442 -1.847981 -0.099078
H 2.804957 1.296479 -1.587979
C -0.100488 1.722979 0.660447
N -0.155667 2.884256 1.088207
H -0.186119 3.047212 2.104784
O 0.004764 -2.024083 0.511050
H 0.077719 -2.573013 -0.290871
