76

Ir 0.008732 -0.358062 0.188802
H -0.033395 -0.645114 1.924963
H -0.040113 0.262992 1.985149
P -2.348069 -0.249404 0.056275
C -2.696637 -2.955919 0.717175
C -3.217276 -1.873678 -0.023305
C -2.930180 0.679656 -1.419183
C -2.163075 0.617689 -2.600500
C -2.599762 1.282661 -3.754564
C -3.795545 2.019485 -3.736065
C -4.557698 2.089304 -2.559198
C -4.129008 1.422040 -1.400982
C -3.123562 0.605501 1.493773
C -2.853783 1.978789 1.691031
C -3.377274 2.640158 2.810421
C -4.166855 1.945539 3.742340
C -4.437977 0.582444 3.546664
C -3.921011 -0.088755 2.426426
C -4.398765 -2.049151 -0.772168
C -5.050696 -3.292033 -0.774998
C -4.534572 -4.363688 -0.028779
C -3.357509 -4.193080 0.718066
H -1.760330 -2.822855 1.281676
H -1.212716 0.061499 -2.597111
H -1.993246 1.236022 -4.671893
H -4.129805 2.550866 -4.640394
H -5.489758 2.674453 -2.537240
H -4.722647 1.489930 -0.476672
H -2.239012 2.545651 0.976233
H -3.155938 3.709693 2.947381
H -4.573307 2.468341 4.621892
H -5.060026 0.032070 4.269313
H -4.142456 -1.156445 2.280187
H -4.807149 -1.214640 -1.361661
H -5.968194 -3.423375 -1.368933
H -5.047350 -5.337816 -0.035490
H -2.943076 -5.032083 1.297623
P 2.371762 -0.215438 0.114551
C 2.798602 -2.723491 1.319867
C 3.308320 -1.418482 1.150036
C 3.047578 1.431307 0.583891
C 2.470280 2.130934 1.662860
C 2.953973 3.395708 2.021502
C 4.028024 3.965437 1.318406
C 4.613628 3.268567 0.250721
C 4.122867 2.007367 -0.123491
C 2.989854 -0.474211 -1.599203
C 2.361116 0.265589 -2.625694
C 2.786810 0.116157 -3.951917
C 3.825720 -0.778737 -4.265608
C 4.444036 -1.519213 -3.247077
C 4.032261 -1.366404 -1.911891
C 4.534560 -1.068134 1.753488
C 5.241846 -2.014380 2.511617
C 4.735379 -3.314236 2.670423
C 3.514285 -3.666620 2.072162
H 1.835407 -2.996834 0.864527
H 1.612289 1.700409 2.200114
H 2.472308 3.947861 2.841876
H 4.398806 4.964387 1.594368
H 5.450226 3.714076 -0.309099
H 4.570475 1.476369 -0.976984
H 1.538042 0.953844 -2.372193
H 2.299032 0.698243 -4.748852
H 4.151015 -0.900791 -5.310242
H 5.254318 -2.223906 -3.489395
H 4.520872 -1.946788 -1.114656
H 4.934755 -0.049996 1.633775
H 6.195253 -1.730704 2.983232
H 5.291433 -4.053822 3.266922
H 3.109862 -4.682768 2.196872
C 0.060282 -1.947542 -0.763230
O 0.102900 -2.957029 -1.362710
N -0.018576 1.727051 -0.265608
C -0.123457 2.917799 -0.159902
S -0.290323 4.519702 0.002923
