32

Ir 0.000011 0.156817 0.235620
H 0.000027 0.020917 2.008733
H 0.000030 -0.857363 1.871781
P 2.331132 -0.024114 0.036094
C 2.818713 -0.416593 -1.689723
C 3.047020 -1.400417 1.020379
C 3.343698 1.447498 0.480091
H 2.236270 -1.312930 -1.982952
H 3.907479 -0.608108 -1.775383
H 2.527435 0.426511 -2.345386
H 2.483393 -2.312659 0.739457
H 2.891842 -1.200577 2.098487
H 4.128347 -1.530255 0.813190
H 3.006168 2.310322 -0.127214
H 4.423439 1.267085 0.302862
H 3.177986 1.692557 1.547252
P -2.331103 -0.024206 0.036117
C -3.046945 -1.400536 1.020392
C -2.818676 -0.416679 -1.689704
C -3.343686 1.447392 0.480118
H -2.483293 -2.312758 0.739456
H -4.128270 -1.530403 0.813208
H -2.891766 -1.200703 2.098502
H -2.236212 -1.312999 -1.982942
H -2.527419 0.426439 -2.345357
H -3.907437 -0.608219 -1.775364
H -3.177973 1.692454 1.547278
H -4.423426 1.266975 0.302888
H -3.006158 2.310215 -0.127192
C -0.000129 1.874587 -0.418028
O -0.000323 2.983208 -0.817546
Cl 0.000051 -2.273750 -0.607527
