44

Ir 0.296842 -0.230600 -0.295283
H 0.436995 -0.543183 -1.948673
H 0.151539 0.390470 -1.999486
C 2.253944 0.454504 -0.228287
C 4.452352 0.862078 -0.687815
C 4.134497 1.546229 0.455383
H 5.390903 0.795393 -1.245979
H 4.743536 2.191092 1.095863
C 2.077268 1.774169 1.888543
H 2.677081 2.564564 2.375870
H 1.095099 2.171559 1.565051
H 1.905157 0.943691 2.602788
C 3.205258 -0.649515 -2.260742
H 2.609825 -1.548734 -2.014658
H 2.705192 -0.114852 -3.094164
H 4.222098 -0.947168 -2.577705
N 3.299104 0.197068 -1.083101
N 2.798405 1.284561 0.719832
C -1.722637 -0.720181 -0.252226
C -3.937498 -0.702062 0.554047
C -3.955988 -0.876350 -0.971274
H -4.343867 -1.584461 1.100210
H -4.333303 0.037237 -1.484558
C -2.137951 -1.289322 -2.655797
H -2.127434 -0.347438 -3.251344
H -1.127674 -1.736408 -2.681820
H -2.848259 -1.995515 -3.133069
C -2.101257 -0.157745 2.167402
H -2.456774 -0.906752 2.909851
H -0.998804 -0.099852 2.201190
H -2.526985 0.837156 2.421297
N -2.508508 -0.542411 0.836171
N -2.535255 -1.070282 -1.286727
H -4.562358 -1.742528 -1.310046
H -4.487010 0.203877 0.883274
C 0.729056 -1.662397 0.825107
N 1.031975 -2.673588 1.442746
C 1.099870 -3.054214 2.823794
H 2.123996 -3.400455 3.079198
H 0.417119 -3.907849 3.022261
H 0.829541 -2.224947 3.517285
N -0.490232 1.819105 0.101140
C -1.568809 2.347207 0.172384
S -3.043094 3.024110 0.288160
