34

Ir -0.206960 -0.033690 -0.090515
H -0.193141 0.093198 -1.802418
H -0.263458 -0.858549 -1.743728
N -2.364025 0.010554 -0.119775
C -4.528053 0.600460 -0.236853
C -3.232103 1.080154 -0.205830
N -4.413190 -0.777960 -0.168396
C -3.094617 -1.104760 -0.097106
H -5.183764 -1.445983 -0.176388
H -5.494956 1.108973 -0.298589
H -2.862202 2.110559 -0.224981
H -2.606913 -2.091843 0.008169
C 1.805099 -0.091871 -0.088319
C 4.031328 0.679544 -0.135343
C 4.033363 -0.845238 -0.012180
H 4.682257 1.056515 -0.951921
H 4.654407 -1.220195 0.827766
C 2.239094 -2.533943 0.389346
H 2.688929 -2.930684 1.326114
H 1.119517 -2.610335 0.425913
H 2.625712 -3.146338 -0.458245
C 2.245770 2.309104 -0.772344
H 2.935642 2.679130 -1.560787
H 1.210700 2.304261 -1.155934
H 2.283590 3.005051 0.094500
N 2.624310 0.961680 -0.408545
N 2.618809 -1.148628 0.206345
H 4.390730 -1.349322 -0.942345
H 4.353012 1.183083 0.807860
C -0.187045 1.527961 0.899961
N -0.218792 2.633827 1.463433
H -0.314990 2.665952 2.488839
O -0.628125 -2.167139 0.452470
H -0.670975 -2.107009 1.426652
