44

Ir -0.604399 -0.173117 -0.202832
H -0.842367 -0.685807 -1.848109
H -0.505030 0.146137 -2.067656
P 1.504920 -1.051804 -0.122541
C 2.151596 -1.314334 1.594743
C 2.831319 -0.028526 -0.918247
C 2.546727 0.429464 -2.348939
C 1.718419 -2.705652 -0.940872
C 0.723710 -3.785767 -0.514966
C 2.013813 -0.092676 2.507133
H 1.583554 -2.177094 2.002606
H 3.210663 -1.638713 1.496138
H 2.989392 0.856037 -0.265000
H 3.756141 -0.644135 -0.862508
H 1.632855 -2.505446 -2.030503
H 2.769672 -3.019387 -0.756833
H 1.659418 1.091765 -2.375627
H 3.407456 1.007866 -2.740122
H 2.369667 -0.418657 -3.042355
H 0.780230 -4.002881 0.570492
H -0.316640 -3.470626 -0.726920
H 0.922340 -4.732198 -1.057567
H 2.557281 0.793426 2.120247
H 0.949775 0.202353 2.604812
H 2.409689 -0.318260 3.518051
N -2.652154 0.819641 -0.182122
C -3.730359 -0.183224 -0.341811
C -2.795965 1.514244 1.121126
C -2.737730 1.819916 -1.273794
H -2.748628 0.773234 1.939583
H -3.769112 2.054976 1.167686
H -1.961533 2.229538 1.240305
H -2.670015 1.306535 -2.250716
H -1.891046 2.524603 -1.181242
H -3.703701 2.371093 -1.218671
H -3.667488 -0.932735 0.467943
H -3.607065 -0.706153 -1.308148
H -4.728984 0.310775 -0.315375
C -1.134915 -1.376988 1.093229
N -1.539109 -2.232950 1.889380
H -1.487554 -2.077803 2.905101
N 0.187658 1.832565 -0.142620
C 1.082107 2.569963 0.179895
S 2.304929 3.547205 0.598318
