33

Ir 0.070355 0.148769 0.112921
H 0.219437 0.755833 1.739278
H 0.172236 -0.143514 1.942016
N 2.239523 0.086136 0.096777
C 2.920408 -1.062810 0.324699
C 4.322991 -1.066623 0.345082
N 5.064031 0.033445 0.139625
C 4.375151 1.161419 -0.095198
C 2.975020 1.204390 -0.116004
H 2.294714 -1.964075 0.468800
H 4.859449 -2.012125 0.536594
H 4.952693 2.084976 -0.274426
H 2.420674 2.135907 -0.300557
C -1.936955 0.103889 0.111721
C -4.172077 0.240289 0.793128
C -4.115661 -0.298582 -0.641238
H -4.445200 -0.552357 1.529182
H -4.481141 0.446365 -1.387187
C -2.179065 -1.169159 -2.027715
H -1.963175 -0.423689 -2.824379
H -1.261030 -1.738282 -1.778550
H -2.945410 -1.877759 -2.398857
C -2.428255 1.357421 2.229638
H -2.275998 0.652905 3.079069
H -1.494772 1.928885 2.071178
H -3.235138 2.066665 2.503430
N -2.790138 0.678662 1.007687
N -2.682327 -0.537519 -0.821593
H -4.696721 -1.232583 -0.779350
H -4.882503 1.082656 0.918538
C 0.009234 1.276757 -1.349394
O -0.046758 2.008669 -2.270169
Cl 0.016249 -2.414199 0.236230
