33

Ir 0.035174 0.125159 0.133677
H 0.208868 0.920561 1.701930
H 0.173118 0.014053 1.967551
N 2.203737 0.039870 0.102081
C 2.881182 -1.111574 0.332144
C 4.283032 -1.125462 0.354852
N 5.032212 -0.031259 0.146623
C 4.349258 1.099890 -0.090765
C 2.949587 1.151941 -0.111198
H 2.262369 -2.011926 0.481860
H 4.812325 -2.074284 0.550083
H 4.931830 2.019839 -0.272292
H 2.400545 2.086870 -0.294028
C -1.977731 0.068470 0.126986
C -4.177762 0.245544 0.688321
C -4.110475 -0.359739 -0.536912
H -5.036495 0.510812 1.311640
H -4.901311 -0.724835 -1.198360
C -2.263117 -1.056861 -2.096455
H -1.800120 -0.283061 -2.738723
H -1.499225 -1.818048 -1.842369
H -3.110312 -1.524692 -2.631150
C -2.507766 1.146193 2.330238
H -2.032579 0.420957 3.020303
H -1.790432 1.967334 2.138034
H -3.420398 1.555017 2.800775
N -2.869802 0.506799 1.077260
N -2.766920 -0.459937 -0.864658
C -0.013946 1.311005 -1.322870
O -0.076914 1.968804 -2.298389
C -0.042288 -1.945654 0.165783
C -0.094961 -3.185197 0.122354
H -0.135965 -4.265908 0.094689
