30

Ir -0.000016 -0.123878 -0.188999
H -0.000023 -0.726686 -1.824282
H -0.000051 -1.544578 -1.372116
N -2.070023 -0.152906 -0.232278
C -2.802112 0.912268 -0.655163
C -4.196797 0.835793 -0.743165
N -4.891496 -0.269892 -0.431078
C -4.157473 -1.311397 -0.010309
C -2.760729 -1.277081 0.099947
H -2.246772 1.820488 -0.925483
H -4.765545 1.715607 -1.090751
H -4.694385 -2.236456 0.261757
H -2.153354 -2.115347 0.483030
N 2.070009 -0.152991 -0.232278
C 2.760724 -1.277004 0.100460
C 4.157467 -1.311361 -0.009818
N 4.891467 -0.270049 -0.431104
C 4.196756 0.835482 -0.743700
C 2.802071 0.911989 -0.655690
H 2.153343 -2.115103 0.483908
H 4.694395 -2.236286 0.262669
H 4.765489 1.715133 -1.091723
H 2.246709 1.820077 -0.926411
C 0.000078 1.688942 0.259168
N 0.000185 2.891370 0.474901
C 0.000283 3.762220 1.618203
H -0.890652 4.423618 1.590617
H 0.891413 4.423357 1.590658
H 0.000181 3.203680 2.579504
Cl -0.000124 -2.090983 1.466751
