41

Ir 0.211867 -0.183025 -0.159568
H 0.294995 -0.565070 -1.828528
H 0.270543 0.386679 -1.921757
N 2.369743 -0.004195 -0.109401
C 3.177735 -1.088109 -0.184288
C 4.571671 -0.940712 -0.198891
N 5.176614 0.255698 -0.140410
C 4.360807 1.319111 -0.059917
C 2.962968 1.210925 -0.042530
H 2.688464 -2.072200 -0.225498
H 5.214912 -1.835627 -0.262115
H 4.830048 2.316688 -0.005617
H 2.269369 2.067407 0.031223
P -2.080134 -0.284587 -0.140903
C -2.801318 -1.993480 -0.065239
C -2.912682 0.442238 -1.633090
C -2.553811 1.891734 -1.964706
C -2.890211 0.576691 1.288161
C -2.301710 0.213029 2.652729
C -2.305428 -2.948543 -1.151852
H -2.534958 -2.386247 0.937995
H -3.906944 -1.879277 -0.089603
H -2.644402 -0.230032 -2.475869
H -4.005779 0.322213 -1.464428
H -2.789086 1.667285 1.109846
H -3.974370 0.336533 1.227955
H -1.465799 2.003631 -2.141022
H -3.087886 2.216554 -2.880442
H -2.822501 2.593388 -1.150332
H -2.383847 -0.871741 2.871697
H -1.228797 0.486433 2.696438
H -2.831494 0.758993 3.458975
H -2.564776 -2.593823 -2.170297
H -1.204696 -3.062631 -1.099770
H -2.761583 -3.951075 -1.024723
C 0.277892 -1.669234 0.949001
N 0.358028 -2.740463 1.557681
H 0.335559 -2.775793 2.585329
N 0.140391 1.964297 0.209683
C -0.619229 2.848816 0.538346
O -1.365284 3.740915 0.853951
