33

Ir -0.190704 -0.200690 -0.234920
H -0.263482 -0.294195 -1.926501
H -0.294109 0.679766 -1.838800
C 1.817597 -0.208576 -0.269477
C 4.040219 -0.640704 0.048088
C 3.949172 0.485883 -0.718936
H 4.912011 -1.176669 0.433902
H 4.725806 1.131240 -1.139072
C 2.108425 1.883444 -1.665150
H 1.787586 1.569013 -2.679111
H 1.251786 2.333248 -1.124318
H 2.926566 2.622029 -1.754878
C 2.440553 -2.199852 1.154298
H 1.768071 -1.899524 1.979457
H 1.942593 -2.998285 0.573588
H 3.387876 -2.584519 1.574971
N 2.741299 -1.050767 0.316648
N 2.598878 0.742827 -0.900298
N -2.338597 0.015727 -0.194013
C -4.366025 0.978915 -0.127625
C -3.007722 1.219136 -0.071131
N -4.500128 -0.389490 -0.284559
C -3.256749 -0.941953 -0.321589
H -5.377181 -0.905078 -0.357692
H -5.228263 1.649571 -0.067969
H -2.434483 2.143414 0.067309
H -3.044527 -2.013129 -0.412225
C -0.436636 -1.865465 0.538952
N -0.819935 -3.004065 0.855863
H -0.921498 -3.242129 1.852714
N -0.117205 1.845315 0.546166
C 0.280611 2.423832 1.538455
O 0.647322 3.064195 2.486692
