26

Ir 0.004362 0.025448 -0.159831
H 0.010432 0.226555 -1.864504
H -0.000396 -0.794810 -1.741271
N -2.073157 0.041046 -0.169535
C -4.206726 0.712599 -0.392571
C -2.888824 1.113177 -0.485506
N -4.165752 -0.616217 -0.014659
C -2.867494 -0.996046 0.115856
H -4.969229 -1.223344 0.147226
H -5.144608 1.249834 -0.559948
H -2.462455 2.085942 -0.747239
H -2.509133 -1.987665 0.419565
N 2.077752 -0.021909 -0.164055
C 4.207426 -0.726881 -0.049054
C 2.889634 -1.122692 0.056179
N 4.175320 0.626014 -0.331727
C 2.876025 1.023776 -0.395676
H 4.982938 1.233157 -0.469882
H 5.142758 -1.284397 0.054536
H 2.451281 -2.100165 0.284694
H 2.535013 2.045210 -0.590786
C 0.035730 1.599889 0.874800
N 0.081018 2.664156 1.504105
H 0.076254 2.642870 2.535348
C -0.057646 -1.916403 0.578695
N -0.149106 -3.004113 1.036282
