29

Ir -0.009973 0.011638 -0.147111
H -0.017384 0.401868 -1.830781
H -0.013212 -0.613997 -1.817834
N -2.087126 0.032138 -0.139344
C -2.762947 1.195909 -0.331463
C -4.162163 1.221829 -0.360176
N -4.917014 0.122930 -0.209072
C -4.239300 -1.019259 -0.017360
C -2.840185 -1.087930 0.024904
H -2.152041 2.098397 -0.466748
H -4.682681 2.182426 -0.517259
H -4.825254 -1.944882 0.114986
H -2.293286 -2.027078 0.195981
N 2.087314 0.017933 -0.162694
C 4.898512 0.107862 -0.211858
C 4.136807 1.174830 -0.709212
C 2.742374 1.096943 -0.665250
C 2.822514 -1.016538 0.323228
C 4.220909 -1.001207 0.311839
H 5.998219 0.141906 -0.230755
H 4.610206 2.073024 -1.130861
H 2.099923 1.908015 -1.034804
H 2.247273 -1.868235 0.715011
H 4.762686 -1.867245 0.718088
C 0.028102 1.433354 1.107305
N 0.065002 2.209641 2.061534
H 0.078231 3.230806 1.936454
C -0.011670 -1.999450 0.354436
N -0.011389 -3.132524 0.694958
