31

Ir 0.218235 -0.018443 0.207606
H 0.247558 -0.086653 1.902975
H 0.215159 -1.060241 1.756435
N 2.376666 -0.162076 -0.005097
C 2.630568 -0.286166 -1.470443
C 3.106008 1.004628 0.544684
C 2.857716 -1.404207 0.655025
H 2.762710 1.923760 0.037204
H 4.202617 0.881460 0.392817
H 2.888055 1.095791 1.624738
H 2.271542 -2.243224 0.236934
H 2.683077 -1.333693 1.744414
H 3.944017 -1.547939 0.459654
H 2.307211 0.641534 -1.975428
H 2.025255 -1.138639 -1.836852
H 3.714882 -0.460950 -1.655736
N -1.829238 -0.099835 0.110343
C -4.159823 0.261676 0.232532
O -3.808217 -0.883298 -0.606694
C -2.474133 -0.978950 -0.588966
C -2.800302 0.839708 0.692988
H -2.677181 0.868044 1.794327
H -2.591633 1.857023 0.303037
H -4.789848 -0.112903 1.064360
H -4.759176 0.959757 -0.384514
H -1.937127 -1.775074 -1.139469
C 0.211634 1.711653 -0.448024
N 0.197290 2.820817 -1.008705
H 0.221993 3.674175 -0.430053
O 0.179001 -1.974335 -0.787487
H 0.057496 -2.663451 -0.109601
