54

Ir 1.260652 -0.172967 0.261042
H 1.183958 0.014660 2.072201
H 1.193190 0.864327 1.938948
P -1.081325 -0.015341 0.030254
C -1.595809 -2.602601 0.964801
C -1.998947 -1.617642 0.038399
C -1.602767 0.797919 -1.539426
C -0.780631 0.658936 -2.675782
C -1.172630 1.221731 -3.898628
C -2.377987 1.937036 -3.993222
C -3.192383 2.090116 -2.859612
C -2.807675 1.523795 -1.633873
C -1.933662 0.975764 1.336402
C -1.444028 2.274515 1.602801
C -2.061816 3.063848 2.583159
C -3.159764 2.569255 3.308422
C -3.643398 1.278168 3.047244
C -3.035758 0.481156 2.062425
C -3.083860 -1.879090 -0.822483
C -3.760216 -3.107762 -0.749833
C -3.363852 -4.079077 0.183076
C -2.280864 -3.823408 1.040809
H -0.726995 -2.408356 1.613197
H 0.175854 0.121569 -2.578301
H -0.523608 1.114637 -4.781353
H -2.678931 2.386548 -4.952216
H -4.132277 2.659554 -2.926433
H -3.443302 1.654055 -0.744395
H -0.576908 2.657162 1.035154
H -1.677702 4.076048 2.783836
H -3.638467 3.191963 4.080105
H -4.502166 0.883621 3.612202
H -3.422418 -0.529030 1.860841
H -3.400155 -1.122231 -1.555807
H -4.603242 -3.305726 -1.429790
H -3.895522 -5.041714 0.237007
H -1.957120 -4.585534 1.766094
P 3.595839 -0.109893 0.197494
C 4.328092 1.170877 1.292904
C 4.207276 0.337671 -1.475461
C 4.495095 -1.657976 0.623112
H 3.830120 2.126534 1.033018
H 5.425038 1.248343 1.152874
H 4.100855 0.922448 2.347934
H 3.697899 1.282915 -1.750734
H 3.904466 -0.452236 -2.189578
H 5.308673 0.464021 -1.493018
H 4.278718 -1.918844 1.677407
H 5.589304 -1.544907 0.483911
H 4.113867 -2.479393 -0.014384
C 1.289062 -1.867001 -0.453969
N 1.333252 -3.037652 -0.837779
H 1.329023 -3.292205 -1.832521
Cl 1.458015 2.293818 -0.410929
