51

Ir 1.066997 -0.298971 0.112841
H 1.078840 -0.479553 1.958735
H 1.184576 0.365854 1.984390
P -1.217134 -0.112419 0.042023
C -1.665890 -2.856744 0.430255
C -2.102409 -1.707624 -0.262987
C -1.873664 1.007699 -1.263932
C -1.176765 1.099663 -2.485647
C -1.684233 1.894818 -3.522439
C -2.879180 2.611886 -3.343315
C -3.568703 2.531255 -2.123069
C -3.069984 1.730257 -1.083195
C -1.995243 0.503929 1.604208
C -1.522509 1.711207 2.164342
C -2.102754 2.211600 3.338609
C -3.149886 1.516650 3.967252
C -3.621094 0.317009 3.412486
C -3.049646 -0.189666 2.233459
C -3.203162 -1.802997 -1.137143
C -3.858135 -3.033064 -1.312707
C -3.425950 -4.170855 -0.614132
C -2.329047 -4.079771 0.259413
H -0.789619 -2.784212 1.093921
H -0.225768 0.557867 -2.604337
H -1.133535 1.966797 -4.472748
H -3.269939 3.243946 -4.155737
H -4.500076 3.099243 -1.974927
H -3.609835 1.673531 -0.125608
H -0.699397 2.256535 1.670005
H -1.728886 3.154653 3.766399
H -3.599249 1.911127 4.891825
H -4.441811 -0.233380 3.897938
H -3.429175 -1.128615 1.804453
H -3.547622 -0.915217 -1.687885
H -4.711572 -3.100296 -2.004841
H -3.940211 -5.133931 -0.755728
H -1.980197 -4.970546 0.804013
N 3.237980 -0.415354 0.154868
C 6.033702 -0.629324 0.221541
C 5.226539 -1.605211 0.825005
C 3.836240 -1.467049 0.764386
C 4.012153 0.528767 -0.429918
C 5.410141 0.451416 -0.416499
H 7.130933 -0.713111 0.246376
H 5.661198 -2.475434 1.337317
H 3.158093 -2.212125 1.205644
H 3.465949 1.372913 -0.883435
H 5.994486 1.243089 -0.907242
C 1.026952 -1.747710 -1.010002
O 1.035438 -2.660625 -1.751180
Br 1.242196 2.378387 -0.079373
