32

Ir 0.201068 -0.029607 -0.196627
H 0.167714 -0.077456 -1.932627
H 0.172919 0.897358 -1.748553
N 2.388358 -0.019204 -0.184582
C 2.865690 0.075489 1.226068
C 2.935652 -1.255428 -0.801648
C 2.903675 1.158009 -0.937613
H 2.585245 -2.134915 -0.233522
H 4.048851 -1.225190 -0.796420
H 2.569134 -1.340412 -1.840565
H 2.479641 2.077796 -0.495388
H 2.583394 1.086083 -1.992974
H 4.015164 1.180193 -0.890181
H 2.504008 -0.800204 1.794005
H 2.446254 0.992087 1.679155
H 3.978364 0.106406 1.246094
N -1.857680 0.033901 -0.148314
C -4.149077 -0.563139 -0.179088
O -3.939319 0.866534 0.034137
C -2.617154 1.062612 0.061002
C -2.727540 -1.137472 -0.371142
H -2.538501 -1.540519 -1.386697
H -2.463495 -1.927638 0.359051
H -4.808157 -0.680442 -1.061628
H -4.670916 -0.961502 0.714409
H -2.231326 2.072776 0.268978
C 0.196806 -1.648666 0.755659
N 0.220802 -2.581896 1.575439
H 0.221801 -3.551332 1.221930
C 0.239934 1.869375 0.636467
C 0.256887 2.975269 1.202126
H 0.282611 3.928486 1.713318
