32

Ir -0.078363 -0.210872 -0.328954
H -0.206946 -0.373720 -2.014636
H 0.039148 0.585498 -1.958411
N 1.939282 -0.706567 -0.464712
C 3.808766 -1.908593 -0.816448
C 2.429901 -1.957726 -0.803049
N 4.134932 -0.609427 -0.480875
C 2.993510 0.096213 -0.272048
H 5.074736 -0.221783 -0.393686
H 4.562417 -2.671142 -1.032406
H 1.753885 -2.794357 -1.001579
H 2.975701 1.155530 0.022971
N -2.089540 0.302320 -0.234368
C -4.809697 1.031225 -0.218004
C -4.421773 -0.300971 -0.421816
C -3.063210 -0.628292 -0.424658
C -2.463238 1.593789 -0.026907
C -3.804108 1.987260 -0.015522
H -5.872292 1.317064 -0.215568
H -5.162815 -1.097249 -0.582419
H -2.714654 -1.658335 -0.580302
H -1.628569 2.293254 0.137511
H -4.044680 3.046529 0.155290
C -0.383463 -1.772305 0.656498
N -0.605300 -2.864018 1.164543
C -0.629332 -3.386764 2.503255
H 0.107780 -4.211324 2.602499
H -1.626583 -3.822108 2.724361
H -0.401790 -2.615060 3.271616
N 0.474120 1.783905 0.385391
C 1.323583 2.583019 0.673090
S 2.519906 3.621231 1.037376
