31

Ir 0.047804 -0.312280 -0.269080
H 0.096469 -0.406698 -1.995530
H 0.120211 0.525891 -1.899133
As 2.483001 -0.240697 -0.078294
C 3.083287 0.243014 1.712651
C 3.354620 1.074127 -1.225895
C 3.446041 -1.904138 -0.448023
H 2.576183 1.192995 1.969510
H 4.184269 0.357435 1.742912
H 2.759650 -0.546862 2.416423
H 2.869566 2.046814 -1.014978
H 3.181728 0.797983 -2.283445
H 4.440742 1.118421 -1.015455
H 3.017758 -2.702495 0.187603
H 4.528121 -1.788714 -0.242897
H 3.289190 -2.177172 -1.508865
P -2.241974 -0.215123 -0.160616
C -5.359466 -0.055329 0.039975
C -4.627303 1.143426 -0.050940
C -3.231617 1.208295 -0.143331
C -3.367105 -1.529353 -0.039082
C -4.750905 -1.323272 0.047927
H -6.456276 0.002086 0.110920
H -5.185211 2.095189 -0.044158
H -2.700756 2.172869 -0.187208
H -2.953316 -2.550008 -0.027199
H -5.400398 -2.211645 0.125416
C 0.043998 -1.912111 0.686220
N 0.051389 -3.035812 1.184842
H 0.036297 -3.199803 2.198745
Br 0.219897 2.287768 0.440244
