42

Ir 0.276184 -0.201078 -0.208152
H 0.259288 -0.757267 -1.804045
H 0.304593 -1.640034 -1.327132
P -1.984810 -0.259892 0.011170
C -2.642825 0.796722 1.390610
C -2.588711 -1.958276 0.441821
C -2.585372 -2.955741 -0.717427
C -3.008468 0.262688 -1.447752
C -2.783833 1.705856 -1.904131
C -1.977676 0.536301 2.743229
H -2.468236 1.846327 1.072954
H -3.743897 0.645648 1.437754
H -1.841618 -2.275699 1.204271
H -3.594779 -1.866536 0.905615
H -2.731404 -0.444764 -2.257587
H -4.076133 0.069653 -1.200244
H -1.581285 -3.009578 -1.185387
H -2.833598 -3.972456 -0.350198
H -3.322741 -2.699584 -1.506127
H -3.114412 2.438911 -1.140355
H -1.710813 1.897897 -2.103212
H -3.354924 1.916116 -2.831455
H -2.131838 -0.506147 3.087894
H -0.884410 0.711513 2.669867
H -2.386068 1.213111 3.521535
N 2.419467 -0.303018 -0.156222
C 4.456219 -1.091537 0.346709
C 3.101519 -1.303908 0.509560
N 4.572508 0.052984 -0.424869
C 3.319196 0.504530 -0.712412
H 5.442626 0.487545 -0.732469
H 5.330361 -1.644587 0.703584
H 2.499434 -2.052952 1.048576
H 3.091048 1.400952 -1.299038
C 0.303295 1.664726 -0.156215
N 0.340089 2.895916 -0.215157
C 0.352526 3.896292 0.821123
H -0.546173 4.545532 0.738361
H 1.233565 4.563586 0.706026
H 0.375359 3.461509 1.847206
O 0.366156 -1.811268 1.276738
H 0.363136 -1.324245 2.122914
