35

Ir 0.036875 0.003052 -0.289681
H 0.100212 -0.007014 -2.021389
H 0.020453 -0.929943 -1.906135
P -2.223467 0.266077 -0.234488
C -2.939322 0.116162 1.452650
C -3.175049 -0.972671 -1.207228
C -2.859273 1.886076 -0.838018
H -2.762308 -0.913965 1.820142
H -4.029390 0.318974 1.441376
H -2.425559 0.832729 2.121741
H -3.025281 -1.972796 -0.754318
H -2.804237 -0.986967 -2.250172
H -4.256294 -0.727603 -1.197525
H -2.404866 2.692015 -0.229731
H -3.964409 1.940033 -0.764810
H -2.544783 2.026492 -1.890254
N 2.146081 -0.357923 -0.169903
C 4.506038 -0.171494 -0.113041
O 4.033778 -1.507696 0.241254
C 2.698856 -1.473399 0.175548
C 3.211996 0.631305 -0.393334
H 3.147262 1.021321 -1.429398
H 3.063414 1.488304 0.295008
H 5.171979 -0.271765 -0.993266
H 5.097440 0.213864 0.741285
H 2.115153 -2.375913 0.423552
C 0.207523 1.635689 0.587408
N 0.300984 2.680242 1.224079
C 0.469571 4.064107 0.871587
H 1.379835 4.476271 1.356525
H -0.386852 4.662006 1.250033
H 0.551497 4.225292 -0.227492
N -0.143225 -2.086288 0.436994
C -1.082960 -2.750872 0.819066
O -2.019000 -3.414691 1.192692
