38

Ir 0.056136 -0.370942 -0.100457
H 0.139479 -1.210881 -1.590073
H 0.031139 -0.330917 -1.947520
As 2.475657 0.083799 -0.122323
C 2.979613 1.326999 1.296837
C 3.078639 1.020595 -1.727122
C 3.775031 -1.369095 0.080310
H 2.295436 2.192122 1.205833
H 4.035145 1.647227 1.199916
H 2.817103 0.835659 2.274935
H 2.396083 1.882928 -1.852754
H 2.978134 0.346530 -2.599094
H 4.127682 1.360634 -1.627225
H 3.553710 -1.908823 1.021267
H 4.810944 -0.978172 0.104957
H 3.659662 -2.073583 -0.765499
C -1.993659 -0.348581 -0.015589
C -4.245605 -0.489958 -0.668123
C -4.147424 0.344777 0.619144
H -4.533218 0.126021 -1.550970
H -4.633214 -0.148941 1.492144
C -2.196654 1.202908 1.950874
H -2.674290 0.859651 2.894931
H -1.103108 1.059960 2.014038
H -2.409798 2.281928 1.801608
C -2.556262 -1.874652 -1.922620
H -2.432743 -1.327862 -2.885351
H -1.617644 -2.413267 -1.698041
H -3.372618 -2.615740 -2.043612
N -2.876210 -0.991086 -0.826663
N -2.701167 0.432790 0.833656
H -4.588561 1.357649 0.515121
H -4.969141 -1.328548 -0.592758
C 0.170018 -1.516362 1.351495
O 0.241999 -2.277259 2.247015
N 0.022667 1.816158 -0.345470
C -0.765767 2.736027 -0.359717
O -1.521239 3.675087 -0.354963
