33

Ir -0.007269 -0.015497 -0.255793
H -0.003608 -0.237695 -2.032221
H -0.005491 -1.109028 -1.795703
N -2.062324 -0.036614 -0.232247
C -2.821760 0.230033 -1.323877
C -4.217568 0.168293 -1.260414
N -4.882542 -0.127657 -0.130091
C -4.121443 -0.382352 0.942484
C -2.718534 -0.357371 0.911722
H -2.286247 0.503013 -2.244057
H -4.814014 0.377395 -2.165037
H -4.636012 -0.626691 1.887641
H -2.104210 -0.583600 1.790572
N 2.067799 -0.051151 -0.225846
C 4.872015 -0.149343 -0.133141
C 4.204875 0.219544 -1.312297
C 2.809087 0.266767 -1.315968
C 2.708543 -0.417403 0.913159
C 4.105137 -0.465391 0.994758
H 5.971246 -0.185870 -0.096158
H 4.754767 0.478008 -2.228345
H 2.241760 0.573726 -2.205937
H 2.067644 -0.669792 1.765595
H 4.574207 -0.758342 1.944662
C 0.009611 1.676671 0.554444
N 0.014690 2.686893 1.241215
C 0.034644 4.102188 1.001455
H 0.926034 4.555672 1.483472
H -0.855140 4.577708 1.464765
H 0.049077 4.357612 -0.082047
N -0.017111 -2.078023 0.597690
O 1.057292 -2.658440 0.818647
O -1.101228 -2.611907 0.883840
