54

Ir -1.217357 -0.055437 0.301164
H -1.195279 -0.167513 1.976479
H -1.192913 -1.145025 1.752203
P 1.042379 -0.119735 0.062677
C 1.533391 2.116161 1.685819
C 2.000586 1.369948 0.584072
C 1.562177 -0.377921 -1.690524
C 0.931166 0.376312 -2.702014
C 1.336596 0.235702 -4.036852
C 2.363671 -0.661358 -4.375522
C 2.987906 -1.418484 -3.372178
C 2.591049 -1.278445 -2.032295
C 1.812723 -1.528563 0.962737
C 1.146027 -2.773059 0.877954
C 1.695856 -3.888909 1.525901
C 2.889217 -3.772738 2.260639
C 3.542281 -2.533118 2.348047
C 3.008196 -1.408151 1.697238
C 3.177766 1.773976 -0.078353
C 3.878626 2.908991 0.360177
C 3.411771 3.646492 1.460324
C 2.238834 3.247179 2.122999
H 0.598411 1.808807 2.180513
H 0.115743 1.066709 -2.438108
H 0.837974 0.826227 -4.820882
H 2.673604 -0.775189 -5.425921
H 3.787832 -2.129147 -3.631532
H 3.079453 -1.879014 -1.250230
H 0.200888 -2.832096 0.299783
H 1.182202 -4.860794 1.460158
H 3.310769 -4.652805 2.771142
H 4.473728 -2.437452 2.927391
H 3.522117 -0.437041 1.765630
H 3.542141 1.204560 -0.947102
H 4.793925 3.221312 -0.165947
H 3.961215 4.538382 1.799383
H 1.865496 3.825233 2.982574
N -3.329730 -0.266655 0.212260
C -5.681010 -0.058699 0.168125
O -5.215062 -1.333080 -0.375540
C -3.879841 -1.318621 -0.299618
C -4.385524 0.684907 0.580120
H -4.327548 0.906235 1.665480
H -4.226353 1.637959 0.035037
H -6.358909 -0.281805 1.015978
H -6.258478 0.454678 -0.626444
H -3.266098 -2.161273 -0.672087
C -1.248575 1.706073 -0.313959
N -1.219600 2.864807 -0.714143
C -1.064925 4.146181 -0.079556
H -1.755899 4.888755 -0.529912
H -0.031043 4.521553 -0.237958
H -1.248602 4.107033 1.018014
F -1.278395 -1.985465 -0.715066
