55

Ir -1.319173 -0.524930 -0.160982
H -1.182204 -1.140338 -1.781036
H -1.295237 -0.236874 -2.000551
P 0.944193 -0.190263 -0.019996
C 1.541742 -2.940114 -0.108497
C 1.955610 -1.682195 0.377880
C 1.430741 1.066443 1.230537
C 0.645851 1.204528 2.393041
C 0.994506 2.151297 3.365476
C 2.125963 2.963267 3.187460
C 2.910733 2.827888 2.032130
C 2.565805 1.884667 1.052316
C 1.650413 0.421951 -1.609688
C 1.350781 1.738520 -2.027025
C 1.815183 2.198874 -3.267159
C 2.570809 1.357725 -4.101443
C 2.870416 0.050810 -3.686889
C 2.415040 -0.418241 -2.444078
C 3.150432 -1.583694 1.119899
C 3.921196 -2.730176 1.366533
C 3.510619 -3.978826 0.872580
C 2.320410 -4.081392 0.134430
H 0.595203 -3.016898 -0.666187
H -0.257312 0.586468 2.511158
H 0.367177 2.266136 4.262249
H 2.388896 3.716035 3.946326
H 3.791188 3.471127 1.882169
H 3.174004 1.797142 0.139462
H 0.769660 2.417963 -1.383632
H 1.580615 3.228161 -3.578857
H 2.930580 1.723808 -5.075451
H 3.467856 -0.611858 -4.331816
H 2.660239 -1.441972 -2.124188
H 3.475876 -0.609922 1.515266
H 4.848276 -2.645744 1.954046
H 4.116347 -4.876506 1.070609
H 1.988292 -5.058991 -0.247184
N -3.582508 -0.657568 -0.266669
C -4.122882 -0.103927 1.001369
C -4.077692 0.161481 -1.401324
C -4.029534 -2.059594 -0.437844
H -3.685026 1.189479 -1.297294
H -5.190743 0.173474 -1.408762
H -3.713292 -0.267333 -2.352974
H -3.681284 -2.672230 0.413438
H -3.597439 -2.474818 -1.366857
H -5.141150 -2.108520 -0.493925
H -3.744982 0.927087 1.128165
H -3.773722 -0.718419 1.851037
H -5.236395 -0.102536 0.977516
C -1.257650 -1.813317 1.165660
O -1.242385 -2.648285 1.995691
N -1.646792 1.606450 -0.085384
C -1.257159 2.735814 0.065995
S -0.731615 4.254564 0.247720
