28

Ir -0.000003 0.070944 -0.169617
H 0.009508 -0.130479 -1.933728
H -0.043383 -1.012031 -1.710523
N -2.054292 0.137970 -0.179708
C -4.308807 -0.566344 -0.159253
O -4.171981 0.873331 0.063851
C -2.856485 1.117710 0.099056
C -2.892860 -1.030307 -0.537268
H -2.764371 -1.234850 -1.621844
H -2.514926 -1.908382 0.030407
H -5.070149 -0.718569 -0.947648
H -4.673000 -1.013454 0.789768
H -2.533412 2.136084 0.357652
N 2.065583 -0.040965 -0.133618
C 4.362442 0.503876 -0.338448
O 4.141479 -0.826460 0.226041
C 2.818761 -0.996140 0.312498
C 2.943133 1.032260 -0.645005
H 2.745293 1.178516 -1.726261
H 2.695643 1.982629 -0.131649
H 5.005905 0.389110 -1.232808
H 4.906668 1.102763 0.419600
H 2.402278 -1.920307 0.755252
C 0.083471 1.743395 0.615283
N 0.136500 2.881981 1.104700
H 0.147425 2.992921 2.129982
S -0.123951 -2.266097 0.883125
H -0.018452 -3.103635 -0.187611
