51

Ir 0.009447 0.070016 0.174765
H 0.000651 -0.096977 2.039478
H 0.035270 -0.940663 2.082767
P 2.364270 -0.004279 0.021872
C 2.992089 0.650268 -1.600006
C 3.190744 -1.659202 0.157512
C 2.968754 -2.379526 1.487160
C 3.306314 1.011203 1.267163
C 2.847518 2.462225 1.417084
C 2.350766 -0.007757 -2.823255
H 2.769252 1.738338 -1.589983
H 4.099060 0.543125 -1.605719
H 2.752213 -2.265799 -0.661859
H 4.270760 -1.500680 -0.055769
H 3.194364 0.473347 2.232313
H 4.382455 0.949833 0.991651
H 1.889263 -2.581129 1.634305
H 3.493739 -3.356438 1.486727
H 3.344543 -1.802440 2.356749
H 2.922568 3.028767 0.466978
H 1.790405 2.511618 1.744340
H 3.467363 2.990820 2.169623
H 2.568972 -1.093745 -2.872817
H 1.248498 0.111405 -2.788232
H 2.724287 0.454013 -3.759685
P -2.341313 0.003415 0.025364
C -3.252270 -0.899467 1.375141
C -2.990281 -0.749871 -1.538567
C -2.458387 -0.077538 -2.805314
C -3.179850 1.665783 0.065700
C -2.942123 2.470934 1.345138
C -2.894285 -2.369986 1.588700
H -3.051250 -0.316879 2.299226
H -4.335856 -0.777321 1.152557
H -2.648011 -1.805201 -1.494516
H -4.101013 -0.736181 -1.491632
H -2.784813 2.218871 -0.811928
H -4.264778 1.501787 -0.114921
H -1.349102 -0.091178 -2.810076
H -2.816386 -0.608787 -3.710505
H -2.780350 0.980439 -2.891290
H -3.404738 1.991106 2.231329
H -1.858277 2.584448 1.548728
H -3.377504 3.486704 1.254755
H -3.074188 -2.981186 0.683178
H -1.823984 -2.490620 1.845836
H -3.498879 -2.793039 2.417312
C 0.039522 1.842550 -0.306004
O 0.049637 2.948699 -0.715905
S -0.077140 -2.369206 -0.521650
H 0.109799 -2.144592 -1.853376
