53

Ir 1.150344 -0.137271 0.300391
H 1.157501 0.337924 2.087761
H 1.278979 1.138633 1.824034
P -1.116836 0.002278 0.124431
C -1.642824 -2.437079 1.404954
C -1.998645 -1.616779 0.312753
C -1.750370 0.642552 -1.487055
C -0.973929 0.445328 -2.646448
C -1.458639 0.863352 -3.894292
C -2.711211 1.491753 -3.991746
C -3.480727 1.703138 -2.836131
C -3.003545 1.280541 -1.585203
C -1.951048 1.086019 1.372630
C -1.475750 2.406773 1.530373
C -2.090468 3.265502 2.452810
C -3.175175 2.819859 3.227271
C -3.649424 1.508390 3.071652
C -3.043253 0.642429 2.146115
C -2.976976 -2.064457 -0.596006
C -3.592522 -3.314618 -0.411806
C -3.242910 -4.120660 0.682215
C -2.267686 -3.677054 1.592511
H -0.850630 -2.101711 2.092874
H 0.020647 -0.017444 -2.548962
H -0.844661 0.712516 -4.795520
H -3.085052 1.828280 -4.971280
H -4.457910 2.205570 -2.906229
H -3.606423 1.453266 -0.680263
H -0.624332 2.756902 0.920062
H -1.714700 4.294129 2.567147
H -3.651820 3.496616 3.953456
H -4.499641 1.151626 3.673540
H -3.424655 -0.382703 2.028499
H -3.256994 -1.438495 -1.456119
H -4.351414 -3.658099 -1.131851
H -3.726554 -5.099581 0.824275
H -1.981558 -4.308319 2.447835
N 3.297003 -0.271873 0.405260
C 5.373988 -1.048894 0.783160
C 4.029846 -1.359619 0.844571
N 5.431747 0.245263 0.298676
C 4.165254 0.686822 0.077798
H 6.278425 0.788499 0.128708
H 6.269217 -1.624093 1.037167
H 3.536837 -2.283707 1.161885
H 3.868217 1.672217 -0.311918
C 1.074767 -1.891761 -0.259855
N 1.027496 -3.074821 -0.560158
C 0.854186 -3.844547 -1.757430
H -0.147918 -4.324720 -1.748407
H 1.605937 -4.659567 -1.807173
H 0.937445 -3.228069 -2.680411
Br 1.402165 2.363832 -0.740262
