37

Ir -0.203048 0.237454 -0.317722
H -0.413971 0.617829 -1.951109
H -0.201735 -0.350431 -2.038593
N -2.304719 -0.245874 -0.232758
C -3.262854 0.711063 -0.289636
C -4.621862 0.370715 -0.270410
N -5.053912 -0.897981 -0.196300
C -4.094125 -1.835312 -0.134605
C -2.725989 -1.531570 -0.151061
H -2.918363 1.753911 -0.346504
H -5.384800 1.167209 -0.319493
H -4.415790 -2.889086 -0.068534
H -1.928621 -2.290611 -0.092392
C 1.777710 0.583673 -0.328764
C 3.902028 1.093881 -0.973069
C 3.964459 0.590076 0.297117
H 4.689472 1.450963 -1.643076
H 4.818488 0.414842 0.957601
C 2.329803 -0.262005 1.985323
H 1.240513 -0.160993 2.136738
H 2.597951 -1.337911 2.022519
H 2.875170 0.297270 2.770341
C 2.071079 1.558129 -2.624033
H 1.755514 0.705484 -3.258262
H 1.201508 2.225284 -2.473377
H 2.878048 2.113428 -3.136031
N 2.561889 1.093452 -1.337258
N 2.665005 0.295737 0.679843
C -0.451537 1.742200 0.772198
N -0.652922 2.796056 1.357402
C -0.671431 3.247459 2.719640
H -1.666187 3.673456 2.967937
H 0.069246 4.062473 2.861099
H -0.446164 2.434803 3.446074
N 0.225130 -1.838666 0.119863
C 1.020905 -2.707118 0.364683
S 2.085751 -3.872382 0.730613
