46

Ir 0.290551 -0.151204 -0.247643
H 0.219523 -0.423152 -1.958051
H 0.203261 -1.323522 -1.716654
P -2.025749 -0.234387 0.080712
C -2.531245 0.448593 1.732185
C -2.637251 -1.983144 0.117095
C -2.798779 -2.636398 -1.256487
C -3.150825 0.656170 -1.100909
C -2.826900 2.140569 -1.282542
C -1.765292 -0.156826 2.910099
H -2.335371 1.540289 1.676515
H -3.629752 0.311265 1.840382
H -1.816692 -2.494460 0.672019
H -3.578289 -2.023221 0.706968
H -3.045125 0.121420 -2.068138
H -4.198567 0.502182 -0.759466
H -1.862094 -2.556770 -1.845356
H -3.023577 -3.716611 -1.144061
H -3.620775 -2.188200 -1.852019
H -2.931959 2.709871 -0.336343
H -1.784351 2.271230 -1.635452
H -3.506821 2.603978 -2.026258
H -1.927336 -1.250807 2.993693
H -0.677205 0.022661 2.787428
H -2.084736 0.304381 3.866827
P 2.604309 -0.366262 -0.080685
C 3.158403 -0.266155 1.671131
C 3.681394 0.853661 -0.944286
C 3.183195 -2.020783 -0.620024
H 2.882728 0.726454 2.076870
H 4.249139 -0.436286 1.777108
H 2.600171 -1.045277 2.225318
H 3.412304 1.868914 -0.591498
H 3.480174 0.802755 -2.032091
H 4.758019 0.665373 -0.755026
H 2.496969 -2.723787 -0.101204
H 4.243012 -2.207156 -0.353967
H 3.040395 -2.121340 -1.713616
C 0.349143 1.654346 0.198711
N 0.397190 2.813759 0.605766
C 0.360838 4.090572 -0.056162
H -0.583199 4.624114 0.188990
H 0.432138 4.007346 -1.164762
H 1.191820 4.735448 0.300254
O 0.386253 -2.138645 0.733918
H 0.338944 -1.925459 1.685151
