55

Ir -1.126997 -0.140263 -0.233520
H -1.168317 -1.092806 -1.869438
H -1.202015 -1.825422 -1.453510
N -3.265080 -0.179976 -0.278571
C -4.019568 0.924412 -0.509910
C -5.414196 0.843165 -0.588582
N -6.089798 -0.311397 -0.452064
C -5.334843 -1.393708 -0.212687
C -3.936157 -1.350587 -0.118491
H -3.481718 1.874254 -0.640587
H -6.001717 1.758341 -0.777677
H -5.855100 -2.359066 -0.084764
H -3.317632 -2.227394 0.138455
P 1.155677 -0.100394 -0.071166
C 1.431694 1.363527 -2.485775
C 2.089413 0.579501 -1.517645
C 1.979103 -1.739025 0.152074
C 1.840925 -2.683344 -0.888033
C 2.423131 -3.952753 -0.771749
C 3.150163 -4.292194 0.382525
C 3.294391 -3.353774 1.415447
C 2.712506 -2.079962 1.303688
C 1.708909 0.931789 1.358402
C 1.131890 0.662651 2.620594
C 1.467233 1.458989 3.724895
C 2.356609 2.538548 3.579238
C 2.919092 2.814069 2.323617
C 2.601934 2.011564 1.214071
C 3.473170 0.327059 -1.651559
C 4.186894 0.861711 -2.733848
C 3.527124 1.648390 -3.693618
C 2.151456 1.896447 -3.567583
H 0.350982 1.545989 -2.384656
H 1.270170 -2.423386 -1.793313
H 2.307546 -4.682934 -1.587470
H 3.604289 -5.290652 0.475233
H 3.862313 -3.612975 2.322179
H 2.825923 -1.352662 2.120644
H 0.414092 -0.172624 2.715049
H 1.019040 1.240477 4.706564
H 2.608442 3.168203 4.446725
H 3.611736 3.661182 2.201144
H 3.043180 2.238213 0.232346
H 3.993209 -0.295661 -0.907022
H 5.264558 0.658460 -2.830965
H 4.087989 2.063818 -4.545184
H 1.628592 2.506897 -4.319841
C -1.059085 1.717476 -0.239813
N -0.949644 2.932266 -0.138084
C -0.718995 3.854147 0.942794
H -1.467362 4.673093 0.917688
H 0.282413 4.319925 0.827815
H -0.754585 3.357440 1.937063
S -1.169233 -1.943584 1.505995
H -0.419835 -2.942063 0.958864
