39

Ir -0.340957 -0.210066 -0.174849
H -0.427124 -0.688745 -1.837055
H -0.406396 0.237646 -1.989671
P 1.952512 -0.254847 -0.155101
C 2.706523 -0.392000 1.533482
C 2.800182 1.229156 -0.880022
C 2.295428 1.665290 -2.256130
C 2.732324 -1.658075 -1.092283
C 2.202620 -3.049775 -0.744514
C 2.163803 0.613447 2.552198
H 2.507233 -1.431814 1.869605
H 3.807161 -0.297498 1.404018
H 2.678851 2.056346 -0.150387
H 3.882455 0.973214 -0.901625
H 2.554553 -1.431252 -2.165353
H 3.829832 -1.584767 -0.927243
H 1.235133 1.980169 -2.194357
H 2.887133 2.527694 -2.624059
H 2.375624 0.858618 -3.013898
H 2.351898 -3.299291 0.325559
H 1.116024 -3.120006 -0.948734
H 2.721589 -3.825533 -1.343335
H 2.329191 1.665388 2.244543
H 1.071696 0.480547 2.685271
H 2.653966 0.466052 3.535749
N -2.485431 -0.016651 -0.152787
C -4.531730 0.903370 -0.129397
C -3.179053 1.178836 -0.135014
N -4.637790 -0.475781 -0.142147
C -3.383059 -1.001988 -0.156924
H -5.504239 -1.014496 -0.135815
H -5.408037 1.558188 -0.115629
H -2.621426 2.123017 -0.116563
H -3.153826 -2.072683 -0.161995
C -0.375877 -1.610462 1.029358
O -0.394921 -2.523728 1.775473
N -0.316646 1.965266 0.073352
C 0.392425 2.821407 0.554816
O 1.097708 3.690219 1.005591
