32

Ir -0.046114 0.009007 -0.278078
H 0.009334 -0.025869 -1.974798
H -0.083413 -0.996085 -1.799553
N -2.120957 0.169219 -0.372675
C -4.161959 1.033615 -0.768645
C -2.806753 1.288623 -0.816679
N -4.278345 -0.255794 -0.289059
C -3.035881 -0.755385 -0.056142
H -5.146451 -0.766449 -0.126652
H -5.028337 1.647641 -1.030390
H -2.270921 2.190528 -1.126241
H -2.849668 -1.760644 0.341197
N 2.021173 -0.170663 -0.210584
C 4.821142 -0.461049 -0.215023
C 4.220930 0.739821 -0.620790
C 2.827904 0.850272 -0.606611
C 2.599481 -1.334035 0.193033
C 3.986124 -1.508673 0.199499
H 5.915543 -0.576336 -0.220352
H 4.821283 1.599162 -0.952712
H 2.314354 1.771476 -0.913961
H 1.880353 -2.106824 0.514444
H 4.397827 -2.471938 0.534158
C 0.041711 1.714077 0.480033
N 0.106271 2.888219 0.830011
C 0.088544 3.558502 2.102860
H -0.761752 4.271738 2.145702
H 1.014031 4.159025 2.230227
H 0.003029 2.855656 2.961372
N -0.213323 -1.963943 0.691269
C -1.013894 -2.806402 1.023295
O -1.834036 -3.633766 1.349732
