33

Ir -0.001272 -0.173697 -0.224902
H 0.075671 -0.369820 -1.987432
H 0.043535 -1.270505 -1.691219
N -2.055245 -0.157955 -0.238083
C -2.787076 0.030841 -1.366059
C -4.184859 0.020366 -1.325961
N -4.884110 -0.149404 -0.190804
C -4.149037 -0.331625 0.916415
C -2.747880 -0.351696 0.915681
H -2.225815 0.202701 -2.295150
H -4.754662 0.166974 -2.259797
H -4.688584 -0.477188 1.868236
H -2.151037 -0.537818 1.818543
N 2.095744 -0.204881 -0.182815
C 4.911032 -0.215664 -0.195167
C 4.193185 0.830610 -0.791868
C 2.796017 0.803128 -0.766302
C 2.788960 -1.216958 0.402289
C 4.186842 -1.251805 0.410574
H 6.011492 -0.221796 -0.201247
H 4.703335 1.673179 -1.280463
H 2.185552 1.596145 -1.220128
H 2.166463 -1.999600 0.865093
H 4.693404 -2.097360 0.897942
C 0.008360 1.545319 0.576536
N -0.010734 2.538498 1.294154
C 0.039879 3.953004 1.041204
H 0.912669 4.400142 1.562297
H -0.863952 4.445247 1.457964
H 0.107813 4.201599 -0.042816
C -0.107721 -1.958197 0.813655
C -0.243484 -2.968652 1.521572
H -0.362837 -3.853088 2.133062
