30

Ir -0.000009 -0.060776 -0.140329
H -0.000101 -0.795391 -1.734101
H -0.000078 0.168246 -1.932789
N 2.095046 -0.048963 -0.142382
C 4.907495 -0.099218 -0.140580
C 4.169705 -1.174188 -0.657341
C 2.773801 -1.116595 -0.636381
C 2.805826 0.994382 0.359399
C 4.204459 0.997856 0.375308
H 6.007781 -0.118919 -0.137724
H 4.662921 -2.064655 -1.072628
H 2.149102 -1.939398 -1.011809
H 2.201625 1.836749 0.729156
H 4.727893 1.868670 0.795632
N -2.095081 -0.048943 -0.142317
C -4.907530 -0.099166 -0.140627
C -4.204506 0.998165 0.374732
C -2.805873 0.994660 0.358911
C -2.773823 -1.116843 -0.635758
C -4.169727 -1.174430 -0.656757
H -6.007817 -0.118843 -0.137835
H -4.727951 1.869202 0.794580
H -2.201663 1.837189 0.728295
H -2.149108 -1.939848 -1.010715
H -4.662934 -2.065117 -1.071583
C 0.000022 -1.315153 1.277070
O 0.000038 -2.042729 2.200500
C 0.000063 2.008371 -0.002943
C 0.000195 3.243465 0.130002
H 0.000335 4.321175 0.225525
