58

Ir 0.959955 -0.647530 0.178824
H 0.738145 -1.694313 1.494157
H 0.888681 -0.857994 1.986845
P -1.347707 -0.129501 0.061382
C -2.154580 -2.749315 -0.533918
C -2.441759 -1.383161 -0.732581
C -1.596028 1.394652 -0.942980
C -1.153903 1.375575 -2.284673
C -1.239256 2.535898 -3.065142
C -1.746163 3.724979 -2.513853
C -2.179154 3.746412 -1.180891
C -2.112904 2.583631 -0.396259
C -2.166829 0.222156 1.676836
C -1.445431 0.962880 2.639952
C -2.038188 1.269564 3.873850
C -3.341599 0.832034 4.163486
C -4.056686 0.089350 3.210841
C -3.475549 -0.212876 1.968657
C -3.562528 -1.014197 -1.504535
C -4.386513 -2.002544 -2.066317
C -4.100834 -3.361841 -1.859228
C -2.984548 -3.733560 -1.091028
H -1.263168 -3.028564 0.050506
H -0.729466 0.454642 -2.714426
H -0.890635 2.515088 -4.109181
H -1.790061 4.640740 -3.122924
H -2.561810 4.678201 -0.737870
H -2.444864 2.612360 0.651758
H -0.423121 1.303354 2.406502
H -1.472858 1.854271 4.615785
H -3.800827 1.069480 5.135624
H -5.076976 -0.259564 3.433256
H -4.043552 -0.793997 1.226872
H -3.784911 0.050851 -1.672234
H -5.256907 -1.707084 -2.672263
H -4.747596 -4.134679 -2.302635
H -2.754832 -4.798357 -0.930354
C 3.014753 -0.812698 0.165846
C 5.174449 -1.335459 0.658337
C 5.191356 -0.343395 -0.285139
H 5.991100 -1.863933 1.158975
H 6.027218 0.168015 -0.771417
C 3.477499 0.980032 -1.545210
H 2.433056 0.793647 -1.851111
H 3.530667 1.993372 -1.098971
H 4.143451 0.916994 -2.426849
C 3.378426 -2.607114 1.872117
H 2.995594 -2.120507 2.791758
H 2.559266 -3.200605 1.424215
H 4.219785 -3.274437 2.134456
N 3.838408 -1.614931 0.914918
N 3.870305 -0.042466 -0.579324
C 0.864685 -1.439501 -1.502443
N 0.784531 -1.876733 -2.650776
H 0.588363 -2.864021 -2.857100
N 1.223987 1.437403 0.704606
C 1.414330 2.586795 0.412639
S 1.700402 4.136043 0.031894
