32

Ir 0.440574 -0.294820 -0.200694
H 0.553807 -0.702488 -1.849222
H 0.233710 0.219040 -1.945823
N 2.476453 0.480450 -0.155959
C 2.733038 1.040326 1.203112
C 3.479597 -0.575455 -0.450350
C 2.623330 1.576419 -1.154470
H 3.399983 -1.379340 0.302597
H 4.505995 -0.145488 -0.427127
H 3.279916 -1.004501 -1.448992
H 1.848879 2.339776 -0.959477
H 2.479865 1.168097 -2.171323
H 3.637832 2.025236 -1.077211
H 2.651244 0.233112 1.952637
H 1.967549 1.807748 1.417538
H 3.750311 1.489422 1.241453
N -1.528876 -0.925275 -0.198452
C -3.448630 -2.316872 -0.208525
O -3.774496 -0.896331 -0.154279
C -2.620614 -0.226129 -0.129377
C -1.907627 -2.351287 -0.293108
H -1.521058 -2.766948 -1.245661
H -1.430319 -2.909110 0.536485
H -3.960422 -2.748010 -1.091200
H -3.854777 -2.789076 0.708487
H -2.687612 0.873441 -0.047607
C 0.884554 -1.621313 1.020164
N 1.174347 -2.449171 1.892075
H 1.495787 -3.396349 1.649208
N -0.197529 1.755664 0.160608
C -1.095870 2.544076 0.298140
S -2.339774 3.569186 0.471344
