29

Ir -0.000001 0.026471 -0.111015
H -0.000012 0.527444 -1.801688
H -0.000012 -0.436108 -1.867697
N -2.099226 0.025045 -0.138823
C -4.911511 0.100164 -0.253718
C -4.148684 1.235947 -0.560684
C -2.755299 1.162192 -0.492433
C -2.836775 -1.076195 0.164778
C -4.234382 -1.069997 0.114362
H -6.010616 0.128443 -0.298294
H -4.620052 2.185344 -0.852325
H -2.114718 2.025026 -0.721860
H -2.262766 -1.971103 0.446726
H -4.776036 -1.992109 0.369346
N 2.099224 0.025044 -0.138832
C 4.911507 0.100164 -0.253720
C 4.234383 -1.069956 0.114496
C 2.836776 -1.076156 0.164905
C 2.755291 1.162154 -0.492572
C 4.148677 1.235907 -0.560826
H 6.010612 0.128444 -0.298294
H 4.776042 -1.992035 0.369593
H 2.262769 -1.971035 0.446948
H 2.114705 2.024957 -0.722098
H 4.620042 2.185272 -0.852578
C 0.000009 1.432438 1.150294
O 0.000013 2.257574 1.986626
C 0.000004 -2.005415 0.293623
N 0.000007 -3.154219 0.578558
