36

Ir -0.196092 0.435819 -0.129649
H -0.239144 0.806526 -1.867319
H -0.141712 -0.074267 -1.953297
P -2.541545 0.215529 -0.106482
C -3.137209 -0.705432 1.368407
C -3.245696 -0.721646 -1.523441
C -3.524075 1.775553 -0.072805
H -2.600954 -1.675531 1.380534
H -4.234155 -0.864029 1.338575
H -2.862411 -0.136632 2.277925
H -2.718951 -1.696539 -1.559981
H -3.043839 -0.170307 -2.462584
H -4.337606 -0.873669 -1.406707
H -3.207702 2.378903 0.800838
H -4.612664 1.573120 -0.010612
H -3.306502 2.359099 -0.988555
C 1.866227 0.307382 -0.020205
C 4.152924 0.346691 -0.567658
C 3.942792 -0.514468 0.687135
H 4.686705 -0.190681 -1.379111
H 4.601616 -0.227125 1.532896
C 1.948912 -0.909119 2.166716
H 0.921884 -0.525212 2.303751
H 1.879438 -2.008934 2.025246
H 2.562425 -0.679226 3.063065
C 2.538290 1.484410 -2.127763
H 2.602035 0.892902 -3.067688
H 1.533729 1.939174 -2.053815
H 3.292770 2.299387 -2.178312
N 2.777230 0.669373 -0.960170
N 2.534086 -0.270672 1.007215
H 4.099214 -1.599482 0.487492
H 4.717598 1.284766 -0.356778
C -0.260383 1.778193 1.124713
O -0.315192 2.651137 1.914283
Br -0.191941 -2.304362 -0.177130
