36

Ir 0.069264 0.081910 0.171352
H 0.230153 0.568859 1.837676
H 0.194279 -0.396627 1.913891
N 2.242463 0.057583 0.124339
C 2.947368 -1.083014 0.322461
C 4.349495 -1.065987 0.333098
N 5.071316 0.049024 0.139570
C 4.360783 1.168473 -0.071085
C 2.960042 1.189225 -0.074996
H 2.351451 -2.002056 0.448220
H 4.902289 -2.005968 0.504759
H 4.921468 2.104223 -0.240969
H 2.384897 2.112513 -0.233034
C -1.933944 0.059695 0.148005
C -4.175731 0.111801 0.827163
C -4.113735 -0.142094 -0.681703
H -4.465143 -0.805197 1.394113
H -4.441726 0.746357 -1.272719
C -2.207514 -0.797882 -2.196423
H -2.081435 0.072964 -2.876209
H -1.234523 -1.310230 -2.081655
H -2.937034 -1.506358 -2.637679
C -2.434558 0.893629 2.463727
H -2.274984 0.029929 3.149230
H -1.504158 1.491670 2.430869
H -3.247930 1.523636 2.876670
N -2.791249 0.481834 1.127234
N -2.687651 -0.392530 -0.889322
H -4.723838 -1.009595 -1.005409
H -4.877880 0.922979 1.108737
C 0.004577 1.348903 -1.219109
N -0.085419 1.984884 -2.277127
H -0.061125 3.014939 -2.255286
C 0.053677 -1.971285 -0.086122
C 0.060032 -3.190252 -0.315842
H 0.062720 -4.251910 -0.523221
