55

Ir 0.005648 -0.179802 0.222210
H 0.041945 -0.794306 1.816937
H 0.037189 -1.642360 1.353014
P 2.338572 -0.249405 -0.021725
C 2.962855 0.809364 -1.415568
C 2.908539 -1.952683 -0.472520
C 2.973322 -2.937540 0.695925
C 3.397481 0.269046 1.413416
C 3.134580 1.691798 1.912398
C 2.233112 0.575858 -2.739756
H 2.822570 1.859253 -1.081440
H 4.057779 0.639672 -1.513669
H 2.106259 -2.272671 -1.178426
H 3.880818 -1.877714 -1.005390
H 3.174341 -0.465426 2.215784
H 4.462977 0.121790 1.128210
H 2.003577 -2.977007 1.233288
H 3.183052 -3.961054 0.323704
H 3.765625 -2.683746 1.430126
H 3.396240 2.454739 1.151153
H 2.065013 1.833335 2.165080
H 3.739288 1.907467 2.816786
H 2.351234 -0.466068 -3.100091
H 1.147273 0.769295 -2.614129
H 2.618536 1.252489 -3.529702
P -2.329040 -0.254376 0.070406
C -3.091999 -1.829983 0.692726
C -2.936076 -0.135336 -1.678274
C -2.560955 1.169110 -2.383488
C -3.258514 1.076870 0.969188
C -2.957336 1.121055 2.469069
C -2.764435 -3.054621 -0.172340
H -2.683923 -1.952907 1.718053
H -4.188706 -1.670905 0.797320
H -2.453204 -1.001463 -2.176816
H -4.034095 -0.310508 -1.685099
H -2.948697 2.031013 0.493631
H -4.343770 0.941345 0.767202
H -1.465317 1.337714 -2.327666
H -2.856193 1.140256 -3.452136
H -3.056378 2.050489 -1.926762
H -3.276075 0.191546 2.983879
H -1.869359 1.249212 2.640562
H -3.486179 1.967172 2.953099
H -3.389239 -3.072027 -1.088932
H -1.702007 -3.031126 -0.502875
H -2.969046 -3.992199 0.383360
C -0.002156 1.684490 0.242131
N -0.020162 2.910241 0.330091
C -0.044241 3.970938 -0.639633
H 0.839988 4.631559 -0.511116
H -0.941035 4.610208 -0.491851
H -0.052036 3.598738 -1.689953
O -0.039624 -1.842058 -1.237382
H -0.063249 -1.399735 -2.106738
