44

Ir 0.202361 -0.017375 -0.234982
H 0.234861 -0.486012 -2.046628
H 0.364284 -1.300503 -1.858629
P -2.076595 -0.227216 -0.042972
C -2.754376 0.455766 1.543134
C -2.810965 -1.931489 -0.116387
C -2.352702 -2.787500 -1.296736
C -3.080005 0.651821 -1.345439
C -2.752530 2.127557 -1.572075
C -2.028266 -0.040139 2.795511
H -2.661822 1.559288 1.458200
H -3.840473 0.217696 1.568237
H -2.515828 -2.416592 0.833603
H -3.914021 -1.790046 -0.114988
H -2.916558 0.074041 -2.280208
H -4.148960 0.513769 -1.070651
H -1.266550 -2.991923 -1.230467
H -2.875570 -3.765337 -1.289378
H -2.555626 -2.311003 -2.278388
H -2.904518 2.732868 -0.655089
H -1.696535 2.253410 -1.882695
H -3.402547 2.554878 -2.362842
H -2.055692 -1.143215 2.886584
H -0.959578 0.250516 2.757828
H -2.482059 0.400209 3.706644
N 2.317530 0.172703 -0.238224
C 4.603817 -0.369253 -0.463303
O 4.369555 0.671191 0.541674
C 3.043368 0.816799 0.613990
C 3.229542 -0.569387 -1.131427
H 2.909984 -1.628678 -1.142670
H 3.160482 -0.138345 -2.153067
H 4.950831 -1.272663 0.078533
H 5.402621 -0.012749 -1.140858
H 2.648780 1.490144 1.389278
C 0.038362 1.771121 0.220975
N -0.011178 2.871237 0.764803
C -0.145694 4.219267 0.279921
H 0.653562 4.861168 0.705757
H -1.112809 4.649758 0.617563
H -0.100944 4.290093 -0.830042
N 0.583634 -2.006309 0.652286
O 1.711405 -2.525974 0.534106
O -0.271131 -2.542152 1.380660
