29

Ir 0.007280 0.073500 -0.118245
H -0.017551 0.023234 -1.899723
H -0.009334 -0.878578 -1.750187
N -2.104411 -0.002151 -0.142427
C -4.914535 -0.035927 -0.241833
C -4.183970 0.951783 -0.918238
C -2.788528 0.940235 -0.842105
C -2.807790 -0.958456 0.516037
C -4.205941 -1.001825 0.485206
H -6.014499 -0.048936 -0.279260
H -4.682290 1.738178 -1.502964
H -2.172063 1.699479 -1.343854
H -2.182154 -1.709345 1.034601
H -4.724422 -1.799272 1.037178
N 2.077920 0.091666 -0.153530
C 4.904338 0.035025 -0.239988
C 4.144294 -1.041628 -0.712914
C 2.748192 -0.989174 -0.649725
C 2.821235 1.135425 0.308038
C 4.216760 1.140373 0.284860
H 6.003701 0.015914 -0.277968
H 4.619342 -1.940924 -1.130823
H 2.121725 -1.832612 -0.966983
H 2.261172 1.992072 0.704245
H 4.750301 2.017332 0.678519
C -0.119782 1.716762 0.733089
O -0.255925 2.736226 1.310928
S 0.146083 -2.302589 0.751598
H 0.495353 -1.966558 2.026194
