30

Ir 0.154112 0.075546 -0.175539
H 0.051596 0.334874 -1.916488
H 0.050172 -0.613796 -1.866724
N -2.013783 -0.013061 -0.091274
C -2.764924 1.066564 -0.417767
C -4.164634 1.006180 -0.389117
N -4.836386 -0.104274 -0.049038
C -4.081382 -1.166074 0.272294
C -2.679063 -1.140100 0.261007
H -2.222283 1.978872 -0.704716
H -4.755110 1.899743 -0.656126
H -4.603173 -2.095309 0.558885
H -2.063562 -2.011556 0.533894
P 2.444337 -0.033468 -0.124822
C 3.316705 1.497661 -0.647613
C 3.137805 -1.351137 -1.197013
C 3.117523 -0.399640 1.541316
H 3.015461 1.749592 -1.682805
H 4.416702 1.367987 -0.598605
H 3.010009 2.330224 0.015162
H 2.833883 -1.166320 -2.245511
H 2.708547 -2.317147 -0.867163
H 4.243714 -1.376535 -1.125848
H 2.805295 0.403119 2.236754
H 4.223484 -0.473599 1.519457
H 2.671510 -1.354223 1.882064
C 0.204845 1.715573 0.755251
O 0.272703 2.703857 1.387009
C 0.274233 -1.879555 0.478811
N 0.383568 -2.982473 0.892813
