55

Ir 1.033078 -0.185529 0.246844
H 0.967598 -0.431972 1.981634
H 1.007150 0.519733 1.925697
P -1.288893 0.006199 0.034159
C -1.805308 -2.572982 1.005463
C -2.213810 -1.593078 0.075644
C -1.866433 0.811619 -1.519981
C -1.102431 0.644883 -2.691857
C -1.546009 1.196837 -3.902040
C -2.743542 1.930009 -3.947883
C -3.499444 2.110645 -2.778356
C -3.064739 1.553071 -1.565299
C -2.088331 1.005254 1.366114
C -1.544849 2.276354 1.657385
C -2.130112 3.073854 2.650759
C -3.249103 2.612792 3.366003
C -3.786680 1.348530 3.080832
C -3.211909 0.544980 2.081603
C -3.311792 -1.855444 -0.768424
C -3.993299 -3.080049 -0.677662
C -3.590268 -4.046617 0.256833
C -2.495379 -3.789791 1.099042
H -0.928556 -2.378367 1.643013
H -0.147651 0.099159 -2.632844
H -0.943281 1.065494 -4.813781
H -3.084562 2.370994 -4.897418
H -4.432959 2.693631 -2.807137
H -3.656403 1.702086 -0.648930
H -0.662689 2.631422 1.098726
H -1.703658 4.064732 2.871068
H -3.701478 3.240616 4.149292
H -4.661524 0.979986 3.638552
H -3.640202 -0.444370 1.861480
H -3.633194 -1.103869 -1.504660
H -4.844457 -3.279153 -1.346948
H -4.125413 -5.006400 0.324038
H -2.168078 -4.547438 1.827507
As 3.469599 -0.019474 0.144339
C 4.517015 -1.601474 0.636012
C 4.226790 1.393509 1.258911
C 4.145838 0.412117 -1.634828
H 4.296027 -1.860897 1.688867
H 5.601858 -1.416071 0.511332
H 4.199842 -2.442913 -0.009641
H 4.013666 1.163325 2.320113
H 3.709252 2.330536 0.977810
H 5.318884 1.482955 1.099398
H 3.892727 -0.422079 -2.316253
H 5.241058 0.575209 -1.617888
H 3.614044 1.324967 -1.964220
C 1.081824 -1.872589 -0.598449
O 1.152681 -2.899353 -1.164587
C 1.170237 1.771408 -0.427316
C 1.296615 2.925326 -0.864434
H 1.370878 3.923876 -1.273100
