28

Ir -0.026372 0.312468 0.147642
H -0.121504 0.573354 1.867729
H -0.082853 -0.358413 1.859928
N 2.034511 0.369464 0.201080
C 2.709500 1.082518 1.137552
C 4.108952 1.085631 1.166330
N 4.858069 0.416919 0.274910
C 4.178386 -0.274460 -0.651524
C 2.777639 -0.318198 -0.704365
H 2.105045 1.657769 1.852281
H 4.634900 1.665946 1.943885
H 4.763373 -0.835651 -1.400388
H 2.222950 -0.920798 -1.437935
N -2.119497 0.270717 0.142216
C -4.933407 0.248291 0.270353
C -4.228389 1.452048 0.126406
C -2.832489 1.427331 0.069765
C -2.801427 -0.899022 0.271667
C -4.197533 -0.941984 0.341869
H -6.032536 0.239718 0.324414
H -4.747650 2.418931 0.060681
H -2.244054 2.348384 -0.037876
H -2.173823 -1.806252 0.297293
H -4.691850 -1.918328 0.448898
C -0.026686 1.644186 -1.150464
N -0.050478 2.608343 -1.914686
H -0.003702 2.502893 -2.937009
Br 0.194768 -2.352106 -0.297157
