51

Ir -1.015290 -0.674079 -0.183231
H -0.739994 -1.656570 -1.563271
H -0.951428 -0.823651 -2.002943
P 1.186824 -0.047103 -0.033545
C 2.129837 -2.634085 0.495427
C 2.326196 -1.261592 0.756176
C 1.431259 1.526061 0.893491
C 0.530066 1.867167 1.921938
C 0.687834 3.070328 2.623735
C 1.751192 3.933553 2.314208
C 2.655125 3.595052 1.294307
C 2.494472 2.398642 0.578321
C 1.951022 0.295964 -1.675845
C 1.275824 1.191098 -2.535629
C 1.820591 1.492264 -3.791471
C 3.029290 0.902230 -4.201280
C 3.697020 0.009791 -3.348894
C 3.162696 -0.293785 -2.085134
C 3.394973 -0.856156 1.580932
C 4.259975 -1.815061 2.131694
C 4.067536 -3.179150 1.861250
C 3.001467 -3.586737 1.042130
H 1.276240 -2.947276 -0.126223
H -0.317887 1.202164 2.144100
H -0.040679 3.342141 3.401930
H 1.867759 4.882296 2.860314
H 3.483960 4.274023 1.041342
H 3.189243 2.151443 -0.239058
H 0.323232 1.642489 -2.211159
H 1.293536 2.192460 -4.457658
H 3.450890 1.138840 -5.190463
H 4.642784 -0.456079 -3.666000
H 3.690970 -0.991789 -1.418349
H 3.547567 0.211148 1.800446
H 5.087667 -1.491544 2.781371
H 4.745785 -3.928650 2.297423
H 2.840004 -4.655826 0.835650
N -3.126031 -1.068483 -0.312687
C -5.107212 -2.080108 -0.633962
C -3.737901 -2.251933 -0.679602
N -5.300875 -0.774191 -0.226748
C -4.090923 -0.186092 -0.038477
H -6.199346 -0.310136 -0.088833
H -5.935762 -2.760463 -0.850630
H -3.152353 -3.137280 -0.945297
H -3.952768 0.855904 0.283500
C -0.929914 -1.547430 1.455524
O -0.884600 -2.152752 2.460464
N -1.504793 1.415857 -0.602009
C -2.103212 2.332754 -0.103578
S -2.959940 3.534380 0.568787
