33

Ir 0.052885 -0.211670 -0.185654
H -0.074348 -0.529719 -1.861959
H -0.023839 0.429335 -1.912759
P 2.327679 -0.388342 -0.195905
C 3.125001 0.035330 1.406289
C 3.181000 0.717586 -1.392470
C 2.973297 -2.064691 -0.589871
H 2.928030 1.102062 1.631693
H 4.219986 -0.132606 1.357783
H 2.682764 -0.590785 2.204335
H 3.018897 1.770027 -1.086893
H 2.755198 0.564298 -2.402642
H 4.269161 0.505741 -1.408478
H 2.538472 -2.789000 0.126054
H 4.080382 -2.094075 -0.538413
H 2.637519 -2.345785 -1.606864
N -2.105097 0.042747 -0.093388
C -4.886240 0.400090 -0.041094
C -4.017638 1.488902 0.122033
C -2.635015 1.275751 0.091595
C -2.938804 -1.014025 -0.245427
C -4.330741 -0.874501 -0.225850
H -5.977740 0.541106 -0.022726
H -4.399685 2.508808 0.274480
H -1.886046 2.078325 0.216240
H -2.455085 -1.992543 -0.379658
H -4.963833 -1.764252 -0.354666
C -0.035466 -1.716308 0.897696
N -0.117177 -2.800214 1.486106
H -0.087883 -2.846077 2.513627
N 0.232105 1.933746 0.245413
C 1.135108 2.702818 0.494946
O 2.032359 3.471150 0.738851
