33

Ir 0.051181 0.077825 0.209368
H 0.069463 0.176429 1.913340
H 0.116144 -0.804677 1.773254
As 2.504008 0.157571 0.108240
C 3.245994 0.010328 -1.687919
C 3.441196 -1.198269 1.150360
C 3.268028 1.836794 0.762800
H 2.849866 -0.929143 -2.113986
H 4.352611 -0.005114 -1.651616
H 2.895879 0.875476 -2.282019
H 3.071694 -2.179011 0.799601
H 3.193138 -1.059273 2.219825
H 4.534737 -1.111815 0.999871
H 2.807535 2.672541 0.202355
H 4.367504 1.845565 0.630348
H 3.016440 1.950453 1.834349
P -2.252454 0.070598 0.105467
C -5.375719 0.150317 0.025696
C -4.734227 -1.100349 0.086284
C -3.344842 -1.274400 0.129030
C -3.275896 1.469087 0.035549
C -4.672857 1.368870 -0.000299
H -6.475619 0.177006 -0.003410
H -5.362964 -2.006841 0.099569
H -2.880542 -2.271805 0.149017
H -2.786014 2.455156 0.014090
H -5.254961 2.304679 -0.048717
C 0.047705 1.754329 -0.641638
N 0.074253 2.892118 -1.109259
H 0.099294 3.074622 -2.121295
N 0.228667 -2.025376 -0.506127
O -0.741780 -2.787046 -0.547989
O 1.352115 -2.410831 -0.894673
