32

Ir -0.398184 -0.306002 -0.203830
H -0.528413 -0.738935 -1.846933
H -0.350819 0.209065 -1.961873
As 1.952588 -0.753616 -0.150179
C 2.823073 -0.228371 1.515716
C 3.006530 0.192779 -1.492980
C 2.464563 -2.626936 -0.370067
H 2.751961 0.874421 1.605991
H 3.886674 -0.537008 1.504840
H 2.293480 -0.707468 2.360137
H 2.941183 1.277924 -1.274532
H 2.586704 -0.012855 -2.495571
H 4.062950 -0.136256 -1.446697
H 1.927572 -3.223650 0.391686
H 3.559151 -2.751445 -0.258025
H 2.144422 -2.966063 -1.373526
N -2.452134 0.234726 -0.136563
C -4.817053 0.210767 -0.047981
O -4.258034 1.557933 0.057206
C -2.929697 1.425657 0.017584
C -3.583137 -0.703087 -0.240305
H -3.551973 -1.205520 -1.228768
H -3.481888 -1.490590 0.533251
H -5.522554 0.204351 -0.901684
H -5.380755 0.009622 0.885183
H -2.300885 2.324610 0.117478
C -0.668595 -1.708452 0.984246
N -0.872438 -2.734876 1.641447
H -0.847860 -2.718818 2.669618
N 0.056277 1.813375 0.092388
C 0.967953 2.579895 0.265672
S 2.212273 3.594412 0.496275
