32

Ir -0.194376 0.188897 -0.353693
H -0.409545 0.307391 -2.049478
H -0.084587 -0.600510 -2.010814
N -2.128665 -0.498759 -0.144618
C -3.215536 0.307738 -0.266880
C -4.510942 -0.208713 -0.142157
N -4.762023 -1.504838 0.096741
C -3.679018 -2.289883 0.219364
C -2.366982 -1.814375 0.106203
H -3.021697 1.368990 -0.472728
H -5.376435 0.468458 -0.247028
H -3.847315 -3.361702 0.421164
H -1.469798 -2.445087 0.219062
N 1.797723 0.698183 -0.461185
C 4.052276 0.839725 0.222764
O 3.901895 0.853311 -1.237429
C 2.605642 0.679070 -1.473676
C 2.611001 0.960152 0.749686
H 2.342495 1.961846 1.145930
H 2.388647 0.198899 1.521649
H 4.724997 1.672446 0.500155
H 4.502328 -0.138639 0.492480
H 2.296872 0.532652 -2.518896
C -0.562898 1.716936 0.666558
N -0.781459 2.688766 1.368733
C -1.227462 4.044222 1.248394
H -2.143330 4.200404 1.856270
H -1.445991 4.332250 0.195507
H -0.457520 4.736763 1.648490
N 0.601670 -1.792004 0.270718
C 1.681136 -2.210521 0.603661
S 3.146166 -2.743207 1.057240
