36

Ir 0.086636 -0.132703 -0.246391
H 0.178246 -0.233107 -2.003691
H 0.169069 -1.147145 -1.778833
As -2.286351 -0.148183 -0.101229
C -2.943122 -0.289243 1.730462
C -3.168044 -1.632100 -1.014615
C -3.231838 1.428881 -0.777552
H -2.492682 -1.203310 2.161542
H -4.049163 -0.337337 1.759786
H -2.577635 0.591740 2.291321
H -2.728049 -2.562878 -0.608816
H -2.946099 -1.567501 -2.096867
H -4.262431 -1.606661 -0.847412
H -2.849580 2.314915 -0.235605
H -4.324909 1.332867 -0.625909
H -3.005863 1.545894 -1.854407
N 2.242810 -0.210431 -0.132971
C 5.051554 -0.289502 -0.014808
C 4.277359 -1.339538 0.499515
C 2.882131 -1.267586 0.426686
C 2.989085 0.807070 -0.629611
C 4.387126 0.804098 -0.588478
H 6.150729 -0.321617 0.031296
H 4.742907 -2.221054 0.963833
H 2.221673 -2.059713 0.816462
H 2.419997 1.638257 -1.070308
H 4.939966 1.657515 -1.007148
C 0.094444 1.616929 0.469201
N 0.066623 2.667882 1.104282
C 0.145549 4.051566 0.717547
H 1.010508 4.539177 1.215424
H -0.761352 4.595723 1.057697
H 0.246319 4.193091 -0.383423
C -0.090731 -2.003602 0.631385
C -0.245803 -3.088562 1.216404
H -0.355344 -4.033299 1.731773
