27

Ir -0.000012 0.298293 0.123264
H -0.000010 0.046815 1.945744
H -0.000006 -0.791856 1.744104
N 2.071006 0.287942 0.213600
C 2.833988 1.398403 0.020561
C 4.224859 1.352291 0.166503
N 4.891829 0.238677 0.509631
C 4.131365 -0.850769 0.693605
C 2.738029 -0.851857 0.547138
H 2.311185 2.326366 -0.245870
H 4.814155 2.270821 0.001767
H 4.641724 -1.789609 0.969389
H 2.127452 -1.762796 0.650918
N -2.071036 0.287912 0.213579
C -2.738063 -0.851954 0.546872
C -4.131399 -0.850886 0.693352
N -4.891855 0.238607 0.509624
C -4.224880 1.352289 0.166729
C -2.834010 1.398422 0.020782
H -2.127483 -1.762917 0.650450
H -4.641763 -1.789783 0.968935
H -4.814171 2.270858 0.002196
H -2.311202 2.326436 -0.245460
C -0.000033 1.871144 -0.824122
N -0.000048 2.949858 -1.423154
H -0.000042 3.002668 -2.451181
Br 0.000076 -2.261115 -0.738108
