59

Ir 1.007670 -0.079471 -0.340869
H 0.955575 -0.132397 -2.102756
H 0.962816 -1.045250 -1.904944
P -1.302772 -0.118311 -0.050872
C -1.847135 2.208587 -1.511619
C -2.107103 1.529018 -0.300995
C -1.875139 -0.630771 1.627152
C -1.004879 -0.458230 2.721333
C -1.434078 -0.786152 4.016129
C -2.724917 -1.298833 4.224636
C -3.590163 -1.484214 3.133499
C -3.168711 -1.151828 1.836678
C -2.237905 -1.240147 -1.182397
C -1.732230 -2.543854 -1.380994
C -2.421110 -3.440874 -2.209989
C -3.608355 -3.048612 -2.851890
C -4.111077 -1.752836 -2.657605
C -3.431580 -0.849514 -1.823197
C -2.898702 2.152855 0.682153
C -3.427261 3.435659 0.454840
C -3.178227 4.099916 -0.755810
C -2.388396 3.480753 -1.741095
H -1.198637 1.737476 -2.266866
H 0.013677 -0.083026 2.533360
H -0.748582 -0.652234 4.867091
H -3.056139 -1.564062 5.240776
H -4.599238 -1.895568 3.291073
H -3.847105 -1.304809 0.983080
H -0.799431 -2.847056 -0.876268
H -2.022574 -4.456457 -2.358421
H -4.142135 -3.754781 -3.506744
H -5.040029 -1.438364 -3.158179
H -3.832344 0.164569 -1.674362
H -3.098203 1.639028 1.634133
H -4.039479 3.916497 1.233456
H -3.595844 5.103264 -0.932258
H -2.183571 3.998029 -2.691249
As 3.432265 -0.200157 -0.135424
C 4.492416 1.341517 -0.724823
C 4.275081 -1.703656 -1.057804
C 4.030249 -0.440449 1.708678
H 4.327105 1.494401 -1.808349
H 5.570756 1.187194 -0.524154
H 4.129807 2.235060 -0.181326
H 4.113259 -1.590976 -2.146807
H 3.760527 -2.618662 -0.706794
H 5.359013 -1.753208 -0.836630
H 3.719258 0.447719 2.290746
H 5.128402 -0.573099 1.764775
H 3.503037 -1.331984 2.098806
C 1.027350 1.737079 0.226322
N 1.006102 2.848687 0.724723
C 0.819029 4.205429 0.303052
H -0.218371 4.527986 0.535849
H 0.980295 4.336608 -0.790386
H 1.507813 4.881971 0.849752
C 1.114831 -1.967060 0.514804
C 1.220633 -3.068488 1.076430
H 1.278170 -4.021341 1.584596
