31

Ir -0.302106 -0.340534 -0.170968
H -0.418126 -0.799519 -1.786515
H -0.370806 0.213843 -1.874400
P 1.942966 -0.546371 -0.149892
C 5.041337 -0.883571 -0.135142
C 4.502959 0.414435 -0.202895
C 3.132687 0.708995 -0.218060
C 2.841022 -2.024359 -0.069247
C 4.242510 -2.039049 -0.070170
H 6.135661 -0.999434 -0.130052
H 5.201252 1.267294 -0.244156
H 2.792358 1.758283 -0.254869
H 2.269759 -2.963775 -0.011233
H 4.745690 -3.019181 -0.016850
N -2.451618 -0.124166 -0.115797
C -5.240135 0.164218 -0.114495
C -4.403413 1.261884 0.131963
C -3.016097 1.083742 0.124463
C -3.254618 -1.190900 -0.349293
C -4.648836 -1.084105 -0.357852
H -6.334771 0.278326 -0.115639
H -4.812681 2.262641 0.331838
H -2.298495 1.900742 0.307566
H -2.745077 -2.148767 -0.526621
H -5.255654 -1.979616 -0.554221
C -0.426169 -1.827641 0.969060
N -0.542624 -2.904251 1.548491
H -0.533819 -2.994135 2.572051
N -0.143959 1.769167 0.250811
C 0.508818 2.779704 0.299387
S 1.376836 4.142165 0.367825
