58

Ir 1.130390 -0.245504 0.126006
H 0.994556 -0.921442 1.756523
H 1.046647 -0.065607 2.015983
P -1.230909 -0.127672 0.008675
C -1.510822 -2.893893 -0.404705
C -2.072339 -1.628218 -0.675732
C -1.849639 1.248425 -1.048624
C -1.079494 1.605250 -2.175079
C -1.519376 2.623640 -3.032121
C -2.723197 3.298033 -2.769334
C -3.490594 2.948528 -1.647273
C -3.057910 1.926480 -0.787722
C -2.070634 0.119069 1.637458
C -1.948185 1.365428 2.293467
C -2.502360 1.542692 3.569843
C -3.173953 0.487120 4.208899
C -3.298158 -0.750621 3.559562
C -2.752255 -0.935459 2.278911
C -3.260124 -1.547271 -1.429747
C -3.877112 -2.716386 -1.902322
C -3.319995 -3.974318 -1.621219
C -2.136718 -4.060884 -0.869163
H -0.568297 -2.946494 0.163927
H -0.128708 1.083174 -2.362635
H -0.910648 2.900503 -3.906504
H -3.060198 4.105911 -3.437069
H -4.430304 3.480043 -1.432188
H -3.658689 1.663809 0.096134
H -1.438925 2.214088 1.811400
H -2.404519 2.520530 4.065956
H -3.604505 0.631382 5.211922
H -3.828895 -1.582158 4.048715
H -2.862209 -1.908165 1.776666
H -3.701511 -0.565323 -1.657561
H -4.800353 -2.641924 -2.497483
H -3.806409 -4.889150 -1.993687
H -1.693048 -5.044276 -0.648344
C 3.184902 -0.215960 0.141648
C 5.384411 -0.510456 0.643940
C 5.310745 0.362125 -0.410019
H 6.246383 -0.906477 1.188825
H 6.098459 0.873575 -0.971063
C 3.436130 1.362318 -1.775815
H 3.000243 0.723471 -2.569035
H 2.642442 2.011439 -1.353637
H 4.259654 1.970463 -2.192603
C 3.702770 -1.764351 2.033946
H 3.377972 -1.201784 2.932759
H 2.861027 -2.396955 1.693492
H 4.568670 -2.400621 2.294991
N 4.077441 -0.859869 0.960356
N 3.965800 0.526537 -0.702337
C 1.186137 -1.290068 -1.397813
N 1.235489 -1.829405 -2.506559
H 1.173255 -2.850347 -2.609943
N 1.211491 1.927866 0.385215
C 0.577393 2.923736 0.650153
O -0.027221 3.931946 0.919787
