31

Ir 0.052657 -0.354309 -0.140342
H 0.217870 -0.541496 -1.902781
H 0.171985 0.350230 -1.895924
N 2.210579 -0.258353 -0.111776
C 2.870466 0.885207 -0.424677
C 4.272018 0.921349 -0.451219
N 5.040046 -0.141312 -0.166107
C 4.376065 -1.263118 0.155433
C 2.977976 -1.338563 0.180606
H 2.240996 1.771604 -0.616491
H 4.783452 1.863415 -0.714553
H 4.973708 -2.157350 0.403796
H 2.455284 -2.271909 0.432881
C -1.961194 -0.319892 -0.144969
C -4.150202 -0.384195 -0.763309
C -4.101148 -0.009518 0.552232
H -4.999508 -0.528417 -1.437244
H -4.901522 0.238388 1.255289
C -2.274529 0.396122 2.236381
H -1.761534 -0.459772 2.715079
H -1.558086 1.236572 2.126672
H -3.136285 0.704674 2.855877
C -2.455329 -0.993673 -2.511079
H -2.060074 -0.136786 -3.092771
H -1.671631 -1.772406 -2.448281
H -3.341929 -1.404670 -3.027661
N -2.837136 -0.581315 -1.170786
N -2.764118 0.017859 0.915236
C -0.001266 -1.774047 1.024065
O -0.053652 -2.683180 1.772565
Br -0.111453 2.339398 0.188147
