31

Ir -0.097726 -0.102857 -0.249409
H -0.020270 -0.733655 -1.861869
H -0.078469 -1.551919 -1.401180
N -2.147769 -0.108040 -0.319249
C -4.369093 -0.894526 -0.164948
O -4.297012 0.565335 -0.258760
C -2.995310 0.870487 -0.266845
C -2.927667 -1.365123 -0.420141
H -2.769362 -1.792688 -1.433101
H -2.526882 -2.079959 0.328458
H -5.108715 -1.246777 -0.908618
H -4.731375 -1.140003 0.855268
H -2.721693 1.934405 -0.234920
N 1.981677 -0.188560 -0.179082
C 4.791603 -0.381696 -0.199306
C 4.001350 -1.392354 0.365659
C 2.608687 -1.267708 0.363936
C 2.746539 0.797221 -0.722008
C 4.142184 0.734297 -0.747287
H 5.889297 -0.459718 -0.211542
H 4.451847 -2.287923 0.817739
H 1.931294 -2.014185 0.817085
H 2.197573 1.650158 -1.143687
H 4.705706 1.561981 -1.201643
C -0.063520 1.717834 0.124184
N -0.024768 2.933622 0.284166
C -0.013346 3.801123 1.433391
H -0.848451 4.530341 1.370391
H 0.925124 4.394605 1.451277
H -0.097179 3.246040 2.393944
Cl -0.322942 -2.046463 1.443315
