35

Ir 0.156990 -0.147280 0.189133
H 0.243546 -1.604866 1.149686
H 0.262468 -1.964690 0.261027
N 2.314756 -0.131164 0.207869
C 4.563993 -0.575988 -0.403861
O 4.432794 0.603830 0.451526
C 3.124025 0.753811 0.683896
C 3.128505 -1.137469 -0.505125
H 3.000292 -2.122060 -0.008749
H 2.751005 -1.228596 -1.543459
H 5.290116 -1.261366 0.075225
H 4.974775 -0.236645 -1.376348
H 2.814452 1.636930 1.261713
C -1.841595 -0.111651 0.039056
C -4.103517 -0.711023 0.167035
C -3.980105 0.630031 -0.562421
H -4.358477 -1.544627 -0.530129
H -4.340146 1.483322 0.060780
C -1.990795 1.834972 -1.539878
H -1.849155 2.740867 -0.910831
H -1.016149 1.541086 -1.970057
H -2.689398 2.068885 -2.367530
C -2.460222 -2.015593 1.554081
H -2.295002 -2.955375 0.978557
H -1.551589 -1.802537 2.148312
H -3.310446 -2.175028 2.247629
N -2.751907 -0.888408 0.701499
N -2.535602 0.729219 -0.773983
H -4.528871 0.656628 -1.525461
H -4.858583 -0.702554 0.979494
C 0.082632 1.544014 0.996880
N 0.037258 2.741366 1.310653
H -0.000445 2.999332 2.307953
C 0.322762 -0.506299 -1.842901
N 0.483630 -0.629240 -3.008017
