34

Ir -0.284758 0.120543 -0.395446
H -0.349410 -0.189065 -2.135602
H -0.354734 -1.049057 -1.868208
P -2.612453 0.136210 -0.181736
C -3.157021 0.016705 1.566753
C -3.458248 -1.260836 -1.021209
C -3.467524 1.634134 -0.825191
H -2.680224 -0.888555 1.992914
H -4.261275 -0.046628 1.644602
H -2.787364 0.903922 2.116088
H -3.005542 -2.196139 -0.635479
H -3.272488 -1.196173 -2.111022
H -4.549120 -1.243938 -0.824724
H -3.039422 2.531080 -0.337135
H -4.559243 1.587104 -0.637250
H -3.280030 1.715261 -1.913504
P 2.019561 0.029570 -0.253743
C 5.139422 -0.080217 0.020042
C 4.403872 -1.267684 0.194434
C 3.009515 -1.350748 0.099779
C 3.152480 1.334590 -0.420647
C 4.534445 1.155752 -0.270800
H 6.235055 -0.120197 0.117164
H 4.958435 -2.193264 0.424788
H 2.476709 -2.300823 0.266641
H 2.743280 2.330952 -0.651336
H 5.185855 2.038069 -0.390971
C -0.240529 1.900093 0.170131
N -0.208124 3.082455 0.462147
C -0.153196 3.899038 1.639387
H -0.996320 4.621097 1.645006
H 0.782092 4.497111 1.644433
H -0.191176 3.298847 2.575364
Br -0.438792 -2.323723 0.740248
