26

Ir -0.034983 0.110101 -0.195570
H -0.051433 0.372673 -1.879936
H -0.028433 -0.613503 -1.898323
N -2.092762 -0.110306 -0.119785
C -4.322172 0.122876 -0.200520
C -3.118474 0.741325 -0.480261
N -3.991624 -1.110163 0.332917
C -2.638447 -1.226560 0.373171
H -4.648262 -1.821517 0.653699
H -5.357267 0.451000 -0.332911
H -2.916674 1.729835 -0.903916
H -1.993408 -2.055026 0.725102
N 2.008013 0.019245 -0.103597
C 4.079280 -0.927510 0.481267
O 4.210864 0.111949 -0.548079
C 2.959518 0.492101 -0.838820
C 2.630290 -0.794963 0.968240
H 2.529851 -0.233799 1.921473
H 2.028677 -1.729393 1.050027
H 4.847980 -0.738009 1.253616
H 4.289074 -1.900998 -0.011788
H 2.821044 1.185912 -1.680188
C -0.101475 1.724381 0.716313
O -0.145957 2.766830 1.266320
O 0.020092 -1.999561 0.482310
H 0.096023 -2.540024 -0.325444
