32

Ir -0.159663 0.166111 0.188625
H -0.140338 0.120326 2.016656
H -0.061894 -0.740523 1.932345
N 1.985298 0.145947 0.149716
C 2.746849 0.601422 1.169380
C 4.144808 0.552780 1.098364
N 4.796438 0.079600 0.023222
C 4.029703 -0.360744 -0.982987
C 2.625399 -0.346196 -0.935037
H 2.217489 1.011786 2.041828
H 4.751646 0.917601 1.944941
H 4.539532 -0.750614 -1.880687
H 2.001993 -0.727999 -1.752441
P -2.452153 0.137034 0.093627
C -3.243448 -0.904238 1.382374
C -3.120098 -0.487602 -1.497647
C -3.261890 1.778438 0.291921
H -2.817446 -1.919389 1.267171
H -4.344367 -0.927416 1.255603
H -2.990781 -0.502754 2.383156
H -2.724372 -1.511337 -1.637397
H -2.754719 0.164309 -2.314377
H -4.228627 -0.500137 -1.489206
H -2.972955 2.211616 1.268972
H -4.364980 1.682773 0.236901
H -2.905549 2.453733 -0.509600
C -0.161952 1.777099 -0.729425
N -0.147278 2.709999 -1.537856
H -0.105990 3.685573 -1.213165
N -0.135213 -2.006479 -0.264154
O -1.189439 -2.673118 -0.242924
O 0.930281 -2.537234 -0.614250
