36

Ir -0.133644 -0.238092 -0.276675
H -0.194189 -0.332298 -1.991440
H -0.098765 0.607692 -1.943550
As 2.324790 -0.085800 -0.192451
C 3.040033 0.203299 1.603929
C 3.054694 1.420240 -1.200654
C 3.384227 -1.609337 -0.821943
H 2.602317 1.127937 2.027622
H 4.143994 0.286371 1.569954
H 2.744309 -0.655804 2.235585
H 2.494086 2.320502 -0.885217
H 2.879884 1.244679 -2.279290
H 4.137134 1.546327 -1.005401
H 3.072106 -2.507779 -0.255515
H 4.467279 -1.427998 -0.678839
H 3.168392 -1.775989 -1.894616
C -2.179333 -0.051121 -0.156950
C -4.262876 0.845870 -0.391647
C -4.390052 -0.294713 0.351434
H -5.010432 1.572865 -0.721863
H -5.270468 -0.763170 0.800606
C -2.840191 -2.034305 1.251693
H -2.500878 -2.855168 0.592117
H -2.051201 -1.837332 2.000846
H -3.766624 -2.344033 1.768796
C -2.380929 2.094817 -1.469364
H -1.468353 2.472532 -0.964766
H -2.130748 1.764823 -2.497993
H -3.147202 2.890142 -1.518252
N -2.916042 0.983281 -0.690538
N -3.115804 -0.827645 0.487688
C 0.017276 -1.948837 0.402248
O 0.244860 -3.050785 0.760110
N 0.005682 1.828975 0.467321
C 0.408618 2.404670 1.456027
O 0.827174 3.020085 2.401909
