32

Ir -0.163397 0.201579 -0.148451
H -0.257518 1.208639 -1.483285
H -0.254143 0.318509 -1.960188
C -2.185439 -0.146454 -0.079751
C -4.436112 -0.021824 -0.356174
C -4.164702 -1.153818 0.367198
H -5.383895 0.394988 -0.709294
H -4.831239 -1.918392 0.777039
C -2.074500 -2.233688 1.291174
H -2.692416 -3.150132 1.323487
H -1.109525 -2.420147 0.764380
H -1.890373 -1.872215 2.323051
C -3.043472 1.808150 -1.382443
H -2.368163 2.499012 -0.843706
H -2.596533 1.585264 -2.372390
H -4.029445 2.287048 -1.524160
N -3.214311 0.586179 -0.612819
N -2.789849 -1.211508 0.528323
P 2.156889 0.107137 -0.126495
C 5.237364 -0.410043 -0.057876
C 4.771895 0.897707 0.163581
C 3.416525 1.262642 0.158492
C 2.983535 -1.398209 -0.361982
C 4.376801 -1.498312 -0.306481
H 6.322675 -0.591892 -0.034030
H 5.516892 1.688750 0.354302
H 3.126695 2.308963 0.343446
H 2.317796 -2.255915 -0.549076
H 4.829681 -2.491880 -0.466015
C -0.271798 1.296588 1.350592
O -0.361474 2.058969 2.239541
F 0.087564 -1.914462 -0.517581
