40

Ir -0.174278 0.241056 -0.260259
H -0.316570 0.059507 -1.952302
H -0.124859 -0.853836 -1.746509
C -2.224473 -0.121751 -0.107253
C -4.459358 0.011700 0.356487
C -4.224839 -1.222979 -0.181763
H -5.382405 0.472108 0.720432
H -4.902676 -2.057644 -0.382673
C -2.232265 -2.466447 -1.038400
H -2.019921 -2.302371 -2.114500
H -1.285352 -2.659456 -0.493997
H -2.917950 -3.327116 -0.930320
C -3.075462 2.007143 0.935867
H -2.310589 2.008775 1.734393
H -2.758723 2.717577 0.149333
H -4.042686 2.338461 1.356056
N -3.236285 0.666774 0.395949
N -2.867164 -1.289997 -0.455122
C 1.904901 0.305170 -0.220054
C 4.030496 -0.032012 0.713838
C 4.171561 0.068106 -0.811247
H 4.716983 0.644502 1.263728
H 4.685766 -0.808853 -1.256658
C 2.475835 0.200266 -2.662230
H 2.492711 -0.805670 -3.137294
H 1.478546 0.649775 -2.811214
H 3.229141 0.837806 -3.173368
C 2.131850 0.448500 2.281187
H 2.639655 1.284079 2.809095
H 1.043615 0.635428 2.249287
H 2.320832 -0.498636 2.829743
N 2.629585 0.347657 0.924859
N 2.773453 0.138389 -1.251231
H 4.719446 0.982937 -1.137423
H 4.181322 -1.068835 1.089895
C -0.173544 2.023498 0.224991
O -0.056658 3.174090 0.460364
N 0.125153 -1.698735 0.784107
C 1.074354 -2.284793 1.256203
O 2.007357 -2.871197 1.751953
