38

Ir 0.324533 -0.194339 -0.229169
H 0.295444 -0.212210 -1.902834
H 0.326200 -1.200074 -1.775160
C -1.668046 -0.270784 -0.126149
C -3.881872 0.077804 -0.545329
C -3.789877 -0.773899 0.522628
H -4.753905 0.483921 -1.066453
H -4.566673 -1.253412 1.125641
C -1.917115 -1.753714 1.887021
H -2.556990 -2.644721 2.035873
H -0.875017 -2.064740 1.635121
H -1.926979 -1.139007 2.810959
C -2.228893 1.264944 -2.025998
H -1.502888 2.024971 -1.680310
H -1.768374 0.692212 -2.855626
H -3.147311 1.761177 -2.391391
N -2.580871 0.381596 -0.924994
N -2.439562 -0.975498 0.767434
N 2.577306 -0.273248 -0.164021
C 3.026731 -1.504013 -0.860689
C 3.219170 0.915792 -0.757986
C 2.921609 -0.393112 1.274829
H 2.942229 0.988019 -1.826517
H 4.329046 0.852661 -0.670258
H 2.859161 1.827761 -0.246591
H 2.347097 -1.252228 1.672248
H 2.613354 0.528282 1.801913
H 4.017367 -0.552622 1.405286
H 2.805089 -1.416285 -1.940626
H 2.453583 -2.350597 -0.436177
H 4.122345 -1.652896 -0.721497
C 0.258017 1.562184 0.358206
N 0.177820 2.776901 0.551893
C 0.174746 3.568724 1.754193
H -0.765620 4.156562 1.823658
H 1.006444 4.305276 1.733472
H 0.271026 2.956547 2.679819
F 0.628518 -2.156257 0.659885
