30

Ir -0.334712 0.159128 -0.239954
H -0.396361 0.286316 -1.965720
H -0.373861 -0.647080 -1.900451
P -2.655408 -0.049945 -0.019845
C -3.132716 -0.496836 1.691685
C -3.362033 -1.378564 -1.067346
C -3.645318 1.448317 -0.414755
H -2.550434 -1.403545 1.950928
H -4.221794 -0.688024 1.770536
H -2.838812 0.324985 2.372621
H -2.795091 -2.300250 -0.827654
H -3.207133 -1.125439 -2.134063
H -4.443032 -1.515539 -0.864241
H -3.313234 2.282425 0.233909
H -4.727948 1.265422 -0.260353
H -3.463281 1.735983 -1.468440
P 1.983996 0.061369 -0.131288
C 5.092886 -0.158827 0.113101
C 4.319714 -1.324478 0.273834
C 2.922978 -1.359414 0.190630
C 3.152758 1.332619 -0.284960
C 4.529416 1.102170 -0.150134
H 6.187238 -0.237375 0.200124
H 4.844831 -2.271896 0.483032
H 2.351168 -2.289506 0.339674
H 2.779287 2.347994 -0.491360
H 5.209286 1.964097 -0.257926
C -0.383686 1.801330 0.625917
O -0.441986 2.860687 1.128839
Cl -0.389703 -2.284483 0.509663
