35

Ir -0.067551 -0.100955 -0.340451
H -0.143322 -0.377264 -2.036402
H -0.174185 -1.287721 -1.712027
As -2.489277 -0.162406 -0.034216
C -3.063173 -0.163985 1.833054
C -3.382266 -1.740657 -0.759131
C -3.518923 1.322354 -0.798921
H -2.565777 -1.028736 2.311674
H -4.164551 -0.251686 1.909908
H -2.716878 0.772182 2.310345
H -2.897563 -2.619925 -0.293395
H -3.227314 -1.769399 -1.854451
H -4.464763 -1.719802 -0.526781
H -3.110414 2.272378 -0.404729
H -4.593560 1.234744 -0.546068
H -3.387751 1.314480 -1.897790
P 2.210839 -0.151674 -0.163374
C 5.333619 -0.214804 0.120960
C 4.605203 -1.387791 0.395491
C 3.211723 -1.489173 0.308174
C 3.335908 1.142546 -0.442670
C 4.718479 0.986433 -0.275885
H 6.429405 -0.238081 0.221380
H 5.166073 -2.287214 0.702605
H 2.679465 -2.422547 0.554080
H 2.920899 2.112060 -0.760587
H 5.363207 1.860253 -0.471795
C -0.071606 1.757266 0.005164
N -0.084049 2.965896 0.148958
C -0.060750 3.942871 1.194795
H -0.933841 4.622919 1.106163
H 0.848466 4.574241 1.108347
H -0.071557 3.480420 2.207078
S -0.179346 -2.297272 0.947024
H 0.037556 -1.768536 2.185644
