34

Ir -0.413435 0.120202 -0.295286
H -0.477224 -0.235225 -2.075745
H -0.514816 -1.064355 -1.816028
N -2.672646 0.129882 -0.222362
C -3.068046 0.019598 1.208062
C -3.221134 1.381573 -0.798111
C -3.234314 -1.026230 -0.968796
H -2.848195 2.250780 -0.227702
H -4.334332 1.367743 -0.757659
H -2.892046 1.481979 -1.848733
H -2.785901 -1.959055 -0.575765
H -2.987086 -0.927412 -2.042046
H -4.340930 -1.050971 -0.852559
H -2.664933 0.883124 1.767716
H -2.635381 -0.910268 1.623845
H -4.178413 0.001022 1.295782
P 1.814340 0.067045 -0.194677
C 4.938911 -0.030882 -0.048051
C 4.230142 -1.239074 -0.183625
C 2.835259 -1.333705 -0.258536
C 2.912130 1.399914 -0.031682
C 4.300830 1.219826 0.027286
H 6.037471 -0.066528 0.005104
H 4.806876 -2.178582 -0.226397
H 2.327630 -2.308257 -0.329399
H 2.481462 2.410807 0.031719
H 4.930216 2.119232 0.136822
C -0.386820 1.825011 0.433336
N -0.383094 2.891939 1.027452
C -0.359473 4.289758 0.707883
H -1.238882 4.799239 1.154728
H -0.357790 4.480779 -0.388548
H 0.541874 4.764499 1.149739
Br -0.472712 -2.408780 0.670573
