31

Ir -0.008363 -0.157811 -0.198158
H -0.000520 -0.147772 -1.889566
H 0.020842 -1.131169 -1.754843
N -2.057571 -0.254170 -0.117420
C -2.889143 0.733997 -0.536442
C -4.278230 0.580470 -0.453167
N -4.864600 -0.523834 0.034071
C -4.025450 -1.489470 0.448823
C -2.631620 -1.382370 0.385444
H -2.414519 1.640177 -0.937591
H -4.935697 1.395922 -0.802281
H -4.475894 -2.409735 0.859145
H -1.902170 -2.147138 0.718079
N 2.062395 -0.261502 -0.120109
C 4.849484 -0.533564 0.036169
C 4.271548 0.608504 -0.537055
C 2.878742 0.711371 -0.597540
C 2.613092 -1.373094 0.440248
C 3.998256 -1.533811 0.530371
H 5.943113 -0.641169 0.096653
H 4.888841 1.424461 -0.939740
H 2.374088 1.584359 -1.034742
H 1.859048 -2.103393 0.795614
H 4.398460 -2.448432 0.991503
C 0.003939 1.560027 0.539025
N 0.016975 2.669599 1.051636
C 0.025324 4.033181 0.607990
H -0.857347 4.572801 1.011907
H 0.017964 4.128285 -0.502188
H 0.923007 4.557518 0.998777
F -0.021253 -2.113929 0.725219
