25

Ir -0.045544 0.177969 -0.179498
H -0.100224 0.272186 -1.922369
H -0.067072 -0.649445 -1.844089
N -2.114662 0.012793 -0.148138
C -4.314518 0.446779 -0.294507
C -3.052765 0.990925 -0.428031
N -4.113151 -0.871859 0.068580
C -2.778351 -1.108432 0.152985
H -4.839218 -1.565008 0.249965
H -5.311035 0.878958 -0.423052
H -2.750379 2.007244 -0.697157
H -2.273438 -2.049525 0.422657
N 2.004246 0.154097 -0.182022
C 4.201037 -0.467900 0.419686
O 4.148436 0.256478 -0.855136
C 2.855742 0.489589 -1.095107
C 2.766371 -0.378203 0.971288
H 2.651283 0.328954 1.819347
H 2.316375 -1.351804 1.257276
H 4.970051 0.016674 1.050687
H 4.516410 -1.506886 0.191003
H 2.596062 0.958647 -2.054859
C -0.108417 1.689941 0.877687
O -0.168666 2.671623 1.525746
Cl 0.124136 -2.324109 0.506711
