32

Ir 0.312453 -0.159427 -0.207236
H 0.318779 -0.072819 -1.963941
H 0.268742 0.841695 -1.786661
N 2.505859 -0.013529 -0.224826
C 3.012257 -0.016435 1.178866
C 3.102678 -1.156633 -0.966601
C 2.937152 1.252795 -0.882379
H 2.834118 -2.108302 -0.474687
H 4.210430 -1.053539 -0.989528
H 2.711613 -1.173508 -2.000153
H 2.484899 2.098851 -0.334123
H 2.602691 1.252152 -1.935849
H 4.045971 1.331697 -0.852069
H 2.739437 -0.969126 1.666959
H 2.541758 0.831638 1.709568
H 4.119241 0.096762 1.180010
N -1.760468 -0.202563 -0.187816
C -4.576173 -0.086814 -0.115202
C -3.832883 0.888814 -0.789249
C -2.436675 0.810375 -0.793990
C -2.484608 -1.149268 0.466419
C -3.879248 -1.122204 0.525727
H -5.675220 -0.043773 -0.088895
H -4.318800 1.725809 -1.310149
H -1.825742 1.563450 -1.304760
H -1.914501 -1.948990 0.955977
H -4.403671 -1.916229 1.075975
C 0.454222 -1.860842 0.510210
O 0.570292 -2.922393 1.012980
N 0.115841 1.859183 0.757644
O -1.006962 2.369788 0.878118
O 1.110719 2.422571 1.257866
