32

Ir -0.371193 -0.416497 -0.104523
H -0.601621 -1.191122 -1.603869
H -0.408398 -0.291013 -1.928747
C 1.617960 -0.727055 -0.066504
C 3.811911 -0.527823 0.496738
C 3.747002 -1.321205 -0.615806
H 4.669270 -0.178861 1.079342
H 4.535244 -1.807567 -1.197678
C 1.908932 -2.210243 -2.071914
H 2.718547 -2.866689 -2.440035
H 1.047386 -2.827610 -1.754881
H 1.579378 -1.541334 -2.892193
C 2.178768 0.665813 1.964241
H 2.435873 1.720998 1.738001
H 1.092239 0.596095 2.146968
H 2.735615 0.314329 2.854361
N 2.510490 -0.184037 0.825263
N 2.402516 -1.441793 -0.941605
N -2.462064 0.108424 -0.149591
C -4.344189 1.325706 -0.298934
C -2.965405 1.381978 -0.340731
N -4.661057 -0.001894 -0.077592
C -3.502068 -0.710465 0.007085
H -5.599676 -0.390890 0.014407
H -5.107979 2.101844 -0.403836
H -2.279915 2.225348 -0.480741
H -3.441570 -1.788725 0.187780
C -0.603368 -1.548431 1.346476
O -0.766805 -2.311708 2.228274
N 0.043602 1.712960 -0.210333
C 0.835533 2.617467 -0.202411
S 1.899818 3.841189 -0.158078
