32

Ir -0.339087 0.123082 -0.245500
H -0.409662 0.489736 -1.925691
H -0.396179 -0.517094 -1.904571
P -2.658292 -0.099951 -0.018023
C -3.184650 -0.494553 1.693496
C -3.375143 -1.440502 -1.044439
C -3.638681 1.391878 -0.463064
H -2.640601 -1.408397 2.002149
H -4.280675 -0.650941 1.753557
H -2.882670 0.337255 2.358685
H -2.842952 -2.376255 -0.784336
H -3.194877 -1.213564 -2.113045
H -4.463065 -1.545726 -0.859648
H -3.316207 2.238487 0.174101
H -4.724746 1.215492 -0.325764
H -3.433917 1.656259 -1.518631
P 1.971209 0.016606 -0.113340
C 5.090965 -0.164064 0.100222
C 4.337254 -1.349242 0.193190
C 2.940457 -1.402633 0.116890
C 3.122204 1.312444 -0.200249
C 4.502772 1.099850 -0.084370
H 6.186897 -0.228876 0.177205
H 4.879061 -2.298950 0.340594
H 2.395583 -2.354726 0.213207
H 2.729906 2.331187 -0.346739
H 5.166089 1.979305 -0.144015
C -0.392411 1.808349 0.630777
O -0.460055 2.840678 1.181672
C -0.361391 -1.845483 0.416276
C -0.414220 -3.012333 0.828574
H -0.438509 -4.027992 1.199664
