63

Ir -1.071451 -0.138760 0.287701
H -0.888442 -0.547770 2.130254
H -0.950235 -1.361678 1.917132
P 1.278086 -0.101282 0.075598
C 1.599041 2.312955 1.467845
C 2.068349 1.547560 0.379097
C 1.875371 -0.535102 -1.616541
C 1.115606 -0.082774 -2.715322
C 1.545506 -0.348266 -4.022857
C 2.725550 -1.078770 -4.244885
C 3.478650 -1.538533 -3.153196
C 3.058407 -1.265635 -1.840765
C 2.235689 -1.232344 1.181557
C 1.808124 -2.575379 1.280938
C 2.505127 -3.471758 2.104010
C 3.622109 -3.041076 2.840510
C 4.045388 -1.706302 2.747054
C 3.358230 -0.803254 1.918611
C 3.100112 2.062527 -0.430348
C 3.652764 3.324603 -0.154025
C 3.186864 4.078037 0.934924
C 2.160340 3.567097 1.748031
H 0.768644 1.922206 2.077295
H 0.181118 0.469623 -2.528825
H 0.947692 0.007686 -4.876213
H 3.055484 -1.295815 -5.272776
H 4.399970 -2.117569 -3.321546
H 3.649768 -1.630152 -0.986899
H 0.929403 -2.908661 0.702362
H 2.167849 -4.517733 2.172835
H 4.162661 -3.747341 3.489814
H 4.918699 -1.360838 3.321986
H 3.698346 0.240872 1.848131
H 3.469035 1.478208 -1.286745
H 4.452974 3.721070 -0.798134
H 3.620809 5.067234 1.148474
H 1.785836 4.155145 2.600418
C -3.119621 -0.211071 0.208735
C -5.378992 -0.388199 0.815984
C -5.277097 -0.241061 -0.707709
H -5.673528 -1.420621 1.119759
H -5.637524 0.754165 -1.061983
C -3.308318 -0.327023 -2.280008
H -2.255579 -0.663005 -2.257141
H -3.892809 -1.014858 -2.924645
H -3.362453 0.700845 -2.704903
C -3.671289 -0.039733 2.641263
H -3.586397 -1.048430 3.106700
H -2.703909 0.484665 2.755634
H -4.456138 0.529561 3.180574
N -4.005076 -0.104835 1.239044
N -3.835767 -0.366092 -0.932893
H -5.838998 -1.020701 -1.261768
H -6.096707 0.319578 1.279859
C -1.138154 1.661353 -0.239019
N -1.146230 2.722123 -0.853937
C -1.011787 4.100106 -0.467700
H -1.731866 4.732163 -1.028019
H 0.008488 4.462162 -0.719058
H -1.170107 4.261808 0.622587
C -1.027908 -2.025525 -0.572241
C -1.001302 -3.103873 -1.185287
H -0.972696 -4.037821 -1.729585
