30

Ir 0.169867 0.077295 -0.242972
H 0.149943 0.155902 -1.921868
H 0.101795 -0.837482 -1.827085
N -1.958552 -0.026294 -0.102198
C -2.820417 0.958844 -0.442215
C -4.202560 0.776743 -0.295000
N -4.738711 -0.356747 0.182182
C -3.864857 -1.320965 0.520866
C -2.477659 -1.179628 0.388226
H -2.382417 1.890491 -0.828964
H -4.894884 1.588672 -0.578939
H -4.279806 -2.262204 0.921077
H -1.717483 -1.941451 0.657776
P 2.411168 -0.226782 0.015232
C 3.570117 1.127752 -0.425758
C 2.987955 -1.714885 -0.887011
C 2.745975 -0.621420 1.773418
H 3.474005 1.351879 -1.505946
H 4.619172 0.854761 -0.193061
H 3.283575 2.031827 0.146431
H 2.891285 -1.551158 -1.977582
H 2.288126 -2.516987 -0.577401
H 4.033550 -1.978396 -0.630014
H 2.521753 0.267267 2.393849
H 3.789954 -0.956176 1.936875
H 2.022431 -1.425926 2.015976
C 0.261308 1.777547 0.498297
N 0.342297 2.883201 1.039812
H 0.342746 3.758196 0.499255
F 0.199395 -1.922697 0.591835
