33

Ir -0.141860 0.096897 0.219577
H -0.195451 -0.258823 1.990218
H -0.238511 -1.099057 1.772727
P 2.117826 0.013961 0.077017
C 2.673471 -0.259116 -1.651336
C 2.865969 -1.376758 1.016582
C 3.057996 1.498942 0.624546
H 2.154455 -1.171425 -2.006648
H 3.773848 -0.378223 -1.716589
H 2.344048 0.600112 -2.266912
H 2.366915 -2.301310 0.664271
H 2.657284 -1.244805 2.096124
H 3.960485 -1.433326 0.849845
H 2.709568 2.371263 0.038136
H 4.148423 1.361278 0.477422
H 2.846002 1.689090 1.694492
N -2.406116 0.000489 0.068113
C -3.043868 1.219850 0.611984
C -2.718634 -0.133096 -1.378567
C -2.925182 -1.189120 0.786646
H -2.339479 0.753863 -1.918368
H -3.819709 -0.220659 -1.529034
H -2.206139 -1.034215 -1.765884
H -2.729251 -1.079970 1.869754
H -2.398984 -2.087781 0.411333
H -4.022853 -1.288832 0.625527
H -2.679458 2.106667 0.062401
H -2.775922 1.332895 1.678963
H -4.152735 1.157662 0.513982
C -0.113704 1.811253 -0.423764
N -0.093220 2.907970 -1.000060
H -0.123429 3.781903 -0.457418
Cl -0.082599 -2.295163 -0.714114
