31

Ir 0.171728 0.175971 -0.197443
H 0.171762 0.327620 -1.928192
H 0.119604 -0.622600 -1.848439
N -1.891352 0.191448 -0.196622
C -4.040283 0.445892 -0.803154
C -2.733166 0.656181 -1.191277
N -3.965726 -0.142035 0.446949
C -2.658447 -0.285156 0.785758
H -4.753614 -0.441149 1.021132
H -4.991019 0.661263 -1.298702
H -2.338528 1.107527 -2.106142
H -2.292831 -0.758710 1.699589
N 2.358416 0.162437 -0.196938
C 2.847507 -0.174051 1.171271
C 2.872396 -0.857897 -1.153297
C 2.892133 1.492334 -0.591129
H 2.442372 -1.836750 -0.869505
H 3.983191 -0.897403 -1.103180
H 2.565326 -0.583529 -2.179212
H 2.551987 2.256778 0.129555
H 2.511593 1.760456 -1.593386
H 4.005170 1.464087 -0.607381
H 2.452868 -1.170610 1.439549
H 2.480315 0.584157 1.886004
H 3.960557 -0.191882 1.181512
C 0.166425 1.661007 0.919306
N 0.137374 2.523894 1.807013
H 0.133860 3.522078 1.552823
N 0.075913 -2.001196 0.380565
O 1.113753 -2.679320 0.527794
O -1.027184 -2.508526 0.636636
