35

Ir -0.000001 -0.103043 0.262337
H 0.000000 -0.132140 2.014468
H -0.000002 0.797021 1.866594
As -2.409738 0.041640 0.030762
C -2.988440 0.414878 -1.797915
C -3.245427 1.493583 1.037948
C -3.479894 -1.526699 0.514420
H -2.438410 1.316583 -2.128862
H -4.082901 0.577130 -1.849876
H -2.697602 -0.439513 -2.437920
H -2.730191 2.427201 0.741095
H -3.083331 1.318886 2.118666
H -4.329472 1.559214 0.821302
H -3.085634 -2.397188 -0.044068
H -4.550582 -1.370590 0.277847
H -3.354841 -1.719913 1.596864
As 2.409737 0.041645 0.030763
C 3.479885 -1.526724 0.514339
C 3.245435 1.493534 1.038019
C 2.988440 0.414969 -1.797897
H 3.354843 -1.719986 1.596775
H 4.550571 -1.370614 0.277760
H 3.085610 -2.397184 -0.044183
H 3.083330 1.318791 2.118728
H 2.730212 2.427173 0.741204
H 4.329482 1.559164 0.821382
H 2.697610 -0.439394 -2.437941
H 4.082901 0.577230 -1.849846
H 2.438406 1.316686 -2.128804
C 0.000007 -1.850224 -0.445082
N 0.000020 -3.001746 -0.890874
H 0.000025 -3.190286 -1.902013
C -0.000006 1.832133 -0.498390
C -0.000010 2.960298 -1.015617
H -0.000014 3.945361 -1.462215
