54

Ir 1.278862 -0.165661 0.238468
H 1.189740 -0.383665 2.008004
H 1.195587 0.531877 1.958421
P -1.070430 -0.000238 0.023773
C -1.523631 -2.591002 0.999633
C -1.978166 -1.607417 0.095639
C -1.642924 0.780186 -1.542626
C -0.852602 0.641469 -2.700451
C -1.290487 1.184480 -3.916928
C -2.510202 1.877547 -3.983013
C -3.294169 2.028966 -2.827702
C -2.864366 1.482922 -1.608346
C -1.868753 1.020923 1.337993
C -1.430762 2.354888 1.501430
C -2.009278 3.161486 2.491294
C -3.016229 2.649694 3.328204
C -3.449004 1.324717 3.168785
C -2.880934 0.510145 2.174794
C -3.112224 -1.869682 -0.699577
C -3.783401 -3.097613 -0.585619
C -3.334207 -4.068213 0.323669
C -2.203622 -3.811849 1.116921
H -0.620390 -2.396433 1.599040
H 0.118127 0.126388 -2.627098
H -0.665565 1.078488 -4.816744
H -2.846261 2.312576 -4.936907
H -4.244643 2.582615 -2.872458
H -3.475672 1.612887 -0.701991
H -0.635093 2.759093 0.854882
H -1.665373 4.200414 2.610469
H -3.463787 3.286432 4.106948
H -4.237459 0.917143 3.820220
H -3.229165 -0.526284 2.052112
H -3.469420 -1.116060 -1.416985
H -4.662931 -3.296704 -1.217062
H -3.861622 -5.030800 0.408791
H -1.840333 -4.572341 1.825018
P 3.621132 -0.017413 0.191783
C 4.298357 1.278507 1.302956
C 4.276567 0.430464 -1.463171
C 4.539906 -1.544926 0.647707
H 3.834174 2.241839 1.013837
H 5.401806 1.342782 1.217787
H 4.016096 1.047157 2.348398
H 3.801542 1.385536 -1.761748
H 3.981267 -0.352598 -2.187867
H 5.380300 0.535309 -1.447486
H 4.263982 -1.837463 1.679401
H 5.636358 -1.392451 0.583135
H 4.236642 -2.362401 -0.035394
C 1.342678 -1.837981 -0.624469
O 1.421241 -2.846827 -1.219929
C 1.401840 1.808444 -0.351924
N 1.553275 2.923577 -0.715979
