32

Ir 0.069640 0.095380 0.257100
H 0.132241 0.354057 1.944469
H 0.143932 -0.664563 1.854184
As 2.498239 -0.052153 0.017197
C 3.063652 -0.456428 -1.804764
C 3.312593 -1.487749 1.056056
C 3.532472 1.538501 0.488775
H 2.547757 -1.389571 -2.101954
H 4.162844 -0.579464 -1.859832
H 2.735963 0.366581 -2.467313
H 2.811972 -2.427558 0.753723
H 3.126819 -1.304508 2.131240
H 4.400903 -1.544453 0.860262
H 3.139567 2.393496 -0.093680
H 4.607963 1.387879 0.272453
H 3.387625 1.748819 1.565413
P -2.219543 -0.001868 0.119170
C -5.332936 -0.183524 -0.114649
C -4.575566 -1.360324 -0.267164
C -3.178627 -1.413431 -0.188691
C -3.370941 1.286418 0.261969
C -4.750581 1.072023 0.134317
H -6.428469 -0.248428 -0.196510
H -5.113118 -2.302816 -0.466338
H -2.633663 -2.359795 -0.333972
H -2.979320 2.296874 0.457954
H -5.418362 1.944011 0.237995
C 0.094225 1.796336 -0.599352
N 0.130531 2.927353 -1.070514
H 0.119347 3.143321 -2.074073
C 0.164302 -1.848138 -0.451855
N 0.297099 -2.937523 -0.890004
