34

Ir -0.000003 -0.155017 0.255837
H -0.000013 -0.361271 1.991083
H -0.000017 0.594110 1.918147
As -2.408961 0.066587 0.026986
C -2.984833 0.480926 -1.791990
C -3.187818 1.525429 1.066878
C -3.526414 -1.473321 0.496769
H -2.415521 1.374409 -2.111756
H -4.075409 0.669942 -1.833296
H -2.717234 -0.370556 -2.445771
H -2.639365 2.445397 0.787988
H -3.030302 1.321178 2.142991
H -4.269016 1.633176 0.852916
H -3.202546 -2.337768 -0.114216
H -4.597390 -1.259132 0.312365
H -3.367192 -1.715907 1.564671
As 2.408953 0.066609 0.026993
C 3.526411 -1.473296 0.496775
C 3.187802 1.525461 1.066876
C 2.984814 0.480933 -1.791990
H 3.367189 -1.715885 1.564677
H 4.597386 -1.259106 0.312371
H 3.202542 -2.337740 -0.114213
H 3.030290 1.321214 2.142990
H 2.639342 2.445424 0.787982
H 4.268999 1.633214 0.852911
H 2.717195 -0.370550 -2.445762
H 4.075393 0.669930 -1.833308
H 2.415513 1.374422 -2.111756
C 0.000059 -1.884582 -0.494949
O 0.000088 -2.945843 -1.002064
C -0.000002 1.787449 -0.480225
C -0.000027 2.934270 -0.954297
H -0.000043 3.933494 -1.368338
