35

Ir 0.304466 0.176264 -0.109291
H 0.357918 1.011706 -1.642977
H 0.335060 0.173130 -1.993904
C -1.683986 0.083323 -0.063052
C -3.789447 -0.592520 0.475255
C -3.905332 0.387017 -0.474572
H -4.553506 -1.179197 0.993596
H -4.788273 0.823745 -0.950199
C -2.292548 1.833568 -1.748454
H -1.487179 2.472898 -1.339349
H -1.941235 1.392680 -2.703635
H -3.194348 2.444146 -1.939726
C -1.870866 -1.711794 1.668895
H -1.356673 -1.168194 2.485512
H -2.689833 -2.326242 2.085970
H -1.128169 -2.347187 1.141214
N -2.435293 -0.761484 0.718192
N -2.614719 0.796751 -0.783743
N 2.581091 0.128133 -0.114383
C 3.090601 -0.378430 -1.412459
C 3.143154 1.473462 0.141716
C 2.998330 -0.807923 0.959189
H 2.813681 2.167160 -0.653944
H 4.257492 1.435501 0.159332
H 2.771385 1.858151 1.108899
H 2.531343 -1.792196 0.761967
H 2.638201 -0.429208 1.933319
H 4.108866 -0.902581 0.985012
H 2.821788 0.332714 -2.215802
H 2.615495 -1.356506 -1.620308
H 4.199261 -0.484000 -1.379187
C 0.295556 1.102444 1.480708
N 0.310313 1.832759 2.480685
H 0.321229 1.423223 3.425085
Cl 0.418887 -2.319415 -0.734944
