32

Ir -0.050687 -0.108787 0.208615
H -0.073190 -0.257325 1.924677
H -0.119197 0.709437 1.819220
As -2.509606 -0.129127 0.090696
C -3.242620 0.030246 -1.706665
C -3.415324 1.236962 1.146028
C -3.313412 -1.792449 0.741921
H -2.828194 0.960469 -2.134677
H -4.348669 0.067966 -1.668966
H -2.909003 -0.843562 -2.297650
H -3.028709 2.214498 0.805825
H -3.171247 1.080670 2.213976
H -4.509997 1.171323 0.993005
H -2.914253 -2.637550 0.149156
H -4.416211 -1.754263 0.647264
H -3.031526 -1.938298 1.801948
P 2.260588 -0.072068 0.093176
C 5.383609 -0.116211 0.005406
C 4.728787 1.123811 0.116973
C 3.337957 1.282471 0.169525
C 3.298201 -1.456364 -0.029028
C 4.693830 -1.340122 -0.066191
H 6.483529 -0.129752 -0.028510
H 5.347426 2.035969 0.164843
H 2.864799 2.273723 0.227975
H 2.824142 -2.448696 -0.086711
H 5.284682 -2.267276 -0.154799
C -0.062035 -1.797884 -0.604913
O -0.117942 -2.856011 -1.110258
N -0.215986 2.001354 -0.494810
O 0.752652 2.765888 -0.498269
O -1.332879 2.396273 -0.892121
