38

Ir 0.340655 -0.340653 -0.121619
H 0.448217 -1.123160 -1.639976
H 0.255464 -0.241719 -1.959226
P 2.622598 0.228517 -0.175568
C 3.042131 1.390756 1.183536
C 3.100913 1.150582 -1.690748
C 3.869203 -1.117801 -0.029212
H 2.321577 2.229419 1.111950
H 4.083663 1.762735 1.106278
H 2.894386 0.878483 2.153964
H 2.383571 1.989755 -1.786086
H 2.993184 0.489181 -2.572364
H 4.140014 1.532382 -1.631615
H 3.677292 -1.680051 0.905933
H 4.904457 -0.720543 -0.019142
H 3.747760 -1.816407 -0.879924
C -1.727041 -0.416858 0.007947
C -4.003546 -0.638507 -0.542801
C -3.853846 0.364459 0.610286
H -4.551205 -0.219411 -1.412352
H -4.508930 0.138084 1.476807
C -1.923248 0.967899 2.098267
H -2.412963 0.617705 3.032132
H -0.832806 0.804415 2.165522
H -2.120600 2.053281 1.968546
C -2.314693 -1.814785 -1.991183
H -2.377250 -1.294983 -2.972783
H -1.298812 -2.230595 -1.869342
H -3.042099 -2.654876 -1.995806
N -2.607362 -0.928103 -0.890151
N -2.437552 0.226141 0.965948
H -4.044198 1.413993 0.291724
H -4.521943 -1.577076 -0.237125
C 0.573993 -1.506914 1.298608
O 0.735863 -2.282200 2.170038
N 0.103421 1.858440 -0.322423
C -0.859590 2.595173 -0.332833
O -1.803789 3.346264 -0.318007
