35

Ir 0.065043 -0.141976 -0.129156
H 0.209336 -1.344320 -1.379308
H 0.165137 -0.518308 -1.892243
N 2.242737 -0.099238 -0.109553
C 2.944558 -1.160367 0.355288
C 4.345855 -1.150969 0.367940
N 5.068463 -0.110606 -0.074503
C 4.362166 0.936025 -0.529214
C 2.959723 0.961786 -0.551964
H 2.355951 -2.016800 0.714153
H 4.895497 -2.027892 0.752260
H 4.926259 1.810296 -0.897283
H 2.382850 1.827707 -0.914874
C -1.941404 -0.113149 -0.098492
C -4.187022 -0.478946 -0.653681
C -4.114933 0.460463 0.553376
H -4.483054 0.058717 -1.585693
H -4.437758 -0.039511 1.497509
C -2.200541 1.746696 1.572715
H -2.035968 1.287472 2.571671
H -1.248664 2.178478 1.214766
H -2.948025 2.559730 1.660913
C -2.455639 -1.941311 -1.742782
H -2.310179 -1.502760 -2.756480
H -1.521243 -2.452108 -1.443192
H -3.268527 -2.692769 -1.799395
N -2.802661 -0.947452 -0.754677
N -2.686547 0.775758 0.609480
H -4.722199 1.379678 0.429791
H -4.887476 -1.326830 -0.510810
C 0.030748 -0.630928 1.690236
N -0.031293 -0.726055 2.919600
H 0.006735 -1.647855 3.376749
C 0.050577 1.800843 -0.828017
N 0.087654 2.938792 -1.148341
