32

Ir 0.000000 0.191088 0.256215
H -0.000003 0.091309 2.020003
H 0.000006 -0.796620 1.891276
As 2.410584 -0.031345 0.020646
C 2.907108 -0.487628 -1.810590
C 3.172982 -1.502988 1.054014
C 3.562552 1.495406 0.442173
H 2.288896 -1.365086 -2.082340
H 3.987163 -0.720116 -1.886822
H 2.647083 0.361965 -2.469724
H 2.579258 -2.399028 0.788046
H 3.053175 -1.288828 2.133050
H 4.242780 -1.649995 0.808972
H 3.231001 2.361013 -0.162994
H 4.623038 1.263872 0.222296
H 3.445523 1.747034 1.513425
As -2.410584 -0.031341 0.020650
C -3.562568 1.495368 0.442287
C -3.172969 -1.503071 1.053902
C -2.907097 -0.487492 -1.810622
H -3.445420 1.747021 1.513520
H -4.623071 1.263785 0.222540
H -3.231126 2.360976 -0.162937
H -3.053220 -1.288968 2.132955
H -2.579198 -2.399071 0.787906
H -4.242751 -1.650103 0.808802
H -2.647022 0.362129 -2.469701
H -3.987159 -0.719933 -1.886891
H -2.288914 -1.364958 -2.082412
C 0.000006 1.904859 -0.410092
O 0.000011 3.013694 -0.808527
Cl -0.000010 -2.244579 -0.589912
