58

Ir 1.339365 -0.216175 -0.255029
H 1.316811 -0.505991 -2.088251
H 1.284407 -1.344084 -1.877599
P -0.918535 -0.073369 -0.047234
C -1.168282 2.263795 -1.578767
C -1.605758 1.608299 -0.406967
C -1.577533 -0.471173 1.627579
C -0.743921 -0.287978 2.748279
C -1.238886 -0.538248 4.036620
C -2.560194 -0.980219 4.212736
C -3.390173 -1.173905 3.096081
C -2.902662 -0.921179 1.804687
C -1.875869 -1.193400 -1.162950
C -1.578163 -2.574592 -1.131498
C -2.290056 -3.460789 -1.952263
C -3.294527 -2.984163 -2.812078
C -3.591532 -1.613274 -2.844557
C -2.888208 -0.718064 -2.021209
C -2.508071 2.263143 0.453005
C -2.968430 3.554515 0.142686
C -2.540128 4.196480 -1.029284
C -1.640254 3.546074 -1.891913
H -0.434577 1.766176 -2.232112
H 0.298388 0.030500 2.589319
H -0.581350 -0.400647 4.908540
H -2.942658 -1.185933 5.224513
H -4.422622 -1.532087 3.229504
H -3.552199 -1.083274 0.930488
H -0.788929 -2.954060 -0.462333
H -2.053668 -4.535450 -1.919046
H -3.847232 -3.683998 -3.457856
H -4.378613 -1.232498 -3.513716
H -3.132485 0.354219 -2.048558
H -2.846934 1.768496 1.375211
H -3.667286 4.060704 0.826390
H -2.903549 5.207471 -1.270125
H -1.295419 4.045740 -2.810439
N 3.611047 -0.415487 -0.246307
C 4.051380 -0.404424 1.172780
C 4.032481 -1.692497 -0.874776
C 4.241596 0.710052 -0.973266
H 3.551405 -2.536451 -0.348034
H 5.140389 -1.796326 -0.826657
H 3.715581 -1.704830 -1.934217
H 3.959670 1.665674 -0.496271
H 3.882361 0.722621 -2.018907
H 5.351389 0.605903 -0.964593
H 3.572888 -1.247090 1.704320
H 3.734741 0.541798 1.647751
H 5.160489 -0.500244 1.232481
C 1.468344 1.587110 0.270245
N 1.513538 2.668780 0.839928
C 1.460467 4.046751 0.439104
H 2.193610 4.647021 1.016211
H 0.451793 4.457260 0.659409
H 1.656253 4.187369 -0.647527
C 1.289269 -2.088036 0.603943
N 1.323835 -3.127243 1.170461
