31

Ir 0.134617 0.183355 -0.059497
H 0.130051 1.399738 -1.232500
H 0.179976 0.630336 -1.846836
C -1.855214 -0.071997 -0.142502
C -4.089846 0.203052 -0.478780
C -3.892329 -1.066632 -0.002964
H -5.004919 0.725263 -0.773137
H -4.603833 -1.870615 0.207300
C -1.885543 -2.408544 0.745008
H -2.532714 -3.284226 0.550664
H -0.901308 -2.516021 0.229796
H -1.739782 -2.290060 1.838148
C -2.592655 2.149163 -1.028314
H -1.859565 2.647341 -0.366520
H -2.176306 2.131955 -2.056405
H -3.543870 2.712916 -1.027742
N -2.837724 0.799642 -0.548943
N -2.529862 -1.216936 0.197272
N 2.257076 0.139784 -0.068136
C 4.368064 -0.874593 -0.316553
O 4.440541 0.590466 -0.384034
C 3.171307 1.015061 -0.313655
C 2.932934 -1.158658 0.151650
H 2.860236 -1.399617 1.233947
H 2.360288 -1.926022 -0.411172
H 5.159236 -1.221003 0.374571
H 4.580164 -1.258652 -1.337004
H 2.993440 2.089385 -0.467768
C 0.009063 0.874464 1.651134
O -0.084738 1.382945 2.710089
F 0.407318 -1.833521 -0.843777
