33

Ir 0.031289 -0.110367 0.110042
H 0.236735 -0.169163 1.922939
H 0.189699 0.700609 1.912912
C -1.978355 -0.045889 0.133978
C -4.135238 0.224888 -0.540099
C -4.161837 -0.109348 0.786962
H -4.947984 0.443070 -1.238876
H -5.000254 -0.241912 1.476821
C -2.436012 -0.670892 2.520358
H -1.645278 -1.442737 2.455819
H -2.034830 0.196483 3.082465
H -3.311364 -1.079582 3.057950
C -2.332808 0.591693 -2.257660
H -1.721323 1.515139 -2.187102
H -1.702565 -0.225204 -2.657165
H -3.208077 0.748719 -2.914629
N -2.803583 0.249518 -0.922978
N -2.841143 -0.283719 1.180286
N 2.208157 -0.054700 0.074898
C 5.026558 0.011331 0.171470
C 4.343699 -1.164474 -0.174964
C 2.946092 -1.158900 -0.206157
C 2.870131 1.087415 0.395309
C 4.266847 1.153360 0.458122
H 6.126164 0.034931 0.214611
H 4.881991 -2.091704 -0.419187
H 2.380960 -2.066652 -0.460607
H 2.219553 1.968203 0.552444
H 4.744206 2.106830 0.728307
C -0.063047 -1.693671 -0.819831
O -0.178372 -2.667311 -1.479319
S -0.042904 2.399018 -0.355055
H 0.476322 2.324625 -1.614910
