34

Ir -0.167317 0.070392 -0.250700
H -0.282774 -0.711021 -1.832103
H -0.268052 -1.474779 -1.328793
N -2.315634 0.006826 -0.207428
C -4.506716 -0.807946 0.155204
O -4.466312 0.650270 0.027817
C -3.171370 0.968649 -0.103039
C -3.077071 -1.259928 -0.193340
H -2.991432 -1.735059 -1.194094
H -2.598701 -1.931784 0.554217
H -5.290398 -1.187704 -0.527816
H -4.795318 -1.038472 1.202443
H -2.920534 2.039610 -0.116004
C 1.832156 0.010521 -0.101233
C 4.074405 -0.580852 -0.485777
C 3.980194 0.179599 0.845522
H 4.301642 -1.662424 -0.338571
H 4.487842 1.172087 0.811560
C 2.020444 0.882598 2.246308
H 2.476499 1.873468 2.465920
H 0.925615 0.996347 2.147791
H 2.236130 0.191455 3.089436
C 2.429231 -0.913305 -2.358718
H 2.207159 -2.004892 -2.361833
H 1.554654 -0.374151 -2.767481
H 3.299992 -0.731309 -3.021056
N 2.729120 -0.414010 -1.038406
N 2.538501 0.351267 1.009245
H 4.410075 -0.387354 1.697843
H 4.841071 -0.165353 -1.172595
C -0.138267 1.919477 -0.213663
O -0.117502 3.098495 -0.152827
S -0.188292 -1.826312 1.458037
H -0.348787 -1.059481 2.575085
