32

Ir -0.000001 0.004277 0.178157
H -0.000005 -0.156216 1.861483
H 0.000005 -1.123045 1.677764
N 2.144717 -0.178105 0.016481
C 2.443661 -0.148431 -1.444763
C 2.900825 0.881957 0.723384
C 2.532004 -1.517639 0.543551
H 2.624551 1.870541 0.314044
H 3.995752 0.721337 0.600686
H 2.640440 0.861651 1.797359
H 1.885101 -2.265846 0.046821
H 2.358125 -1.544437 1.634503
H 3.606700 -1.711827 0.331780
H 2.183526 0.845368 -1.850810
H 1.810278 -0.920285 -1.922411
H 3.523328 -0.356981 -1.618102
N -2.144720 -0.178101 0.016479
C -2.443657 -0.148440 -1.444767
C -2.532014 -1.517627 0.543562
C -2.900830 0.881969 0.723368
H -1.885119 -2.265846 0.046838
H -3.606712 -1.711811 0.331796
H -2.358132 -1.544417 1.634513
H -2.624554 1.870549 0.314020
H -2.640448 0.861674 1.797345
H -3.995756 0.721348 0.600668
H -1.810271 -0.920298 -1.922406
H -2.183516 0.845356 -1.850819
H -3.523323 -0.356989 -1.618110
C 0.000000 1.788939 -0.259678
O 0.000019 2.951453 -0.484195
F 0.000006 -1.832412 -0.954460
