67

Ir -0.964969 -0.150238 -0.278045
H -0.926657 -0.652424 -2.073260
H -0.928277 -1.459103 -1.786095
P -3.306902 -0.213758 -0.096749
C -3.977962 0.848312 1.271389
C -4.070283 -1.869347 0.246749
C -3.761074 -2.949167 -0.791546
C -4.257106 0.369166 -1.586615
C -3.861509 1.748944 -2.114453
C -3.346513 0.566861 2.635971
H -3.780210 1.895886 0.960392
H -5.082056 0.715764 1.291275
H -3.669763 -2.180744 1.233259
H -5.164518 -1.701678 0.355432
H -4.084967 -0.404042 -2.365265
H -5.337796 0.324744 -1.325930
H -2.672053 -3.146170 -0.828890
H -4.260447 -3.899380 -0.513972
H -4.109934 -2.675770 -1.808542
H -4.026500 2.547346 -1.362970
H -2.788139 1.776197 -2.387062
H -4.457711 2.008380 -3.012912
H -3.542889 -0.468273 2.980140
H -2.245742 0.686699 2.580959
H -3.743379 1.260782 3.404658
P 1.379147 -0.099963 -0.073588
C 1.892298 -2.706895 -0.961287
C 2.284880 -1.354592 -1.084035
C 2.013842 -0.393572 1.632979
C 3.300746 -0.923659 1.860050
C 3.770272 -1.087936 3.172463
C 2.960901 -0.725472 4.261757
C 1.676574 -0.203413 4.037347
C 1.200600 -0.042529 2.728111
C 2.157544 1.507510 -0.554245
C 1.763642 2.092323 -1.777401
C 2.301721 3.321545 -2.181347
C 3.226765 3.990478 -1.360929
C 3.614335 3.419480 -0.138934
C 3.086312 2.180899 0.263659
C 3.339605 -1.011210 -1.953672
C 3.991791 -2.008543 -2.698178
C 3.601713 -3.350623 -2.574415
C 2.554438 -3.695656 -1.702654
H 1.070792 -2.982701 -0.280025
H 3.934470 -1.216435 1.008666
H 4.772903 -1.508904 3.344495
H 3.328858 -0.862473 5.290401
H 1.032074 0.064131 4.888728
H 0.183126 0.331069 2.532113
H 1.009493 1.585754 -2.399990
H 1.986469 3.767129 -3.137319
H 3.642109 4.960881 -1.674001
H 4.335326 3.939634 0.510605
H 3.395375 1.740266 1.223068
H 3.655549 0.038114 -2.052077
H 4.812448 -1.730578 -3.377597
H 4.114705 -4.130605 -3.158151
H 2.245220 -4.747040 -1.597929
C -1.018760 1.741323 -0.165580
N -1.014793 2.948167 -0.023665
C -0.809290 3.947359 0.977076
H 0.180584 4.428527 0.825589
H -0.837366 3.523340 2.006035
H -1.578766 4.742979 0.898785
C -0.918576 -1.892889 0.811526
N -0.920187 -2.863784 1.487830
