41

Ir 0.055412 0.156234 -0.279376
H -0.022163 0.062848 -1.978924
H 0.072758 -0.879814 -1.835338
P -2.221665 -0.181569 0.078374
C -2.650942 0.113914 1.857064
C -2.644659 -1.964334 -0.185273
C -2.751705 -2.402931 -1.645899
C -3.477440 0.780663 -0.885951
C -3.401481 2.296880 -0.692991
C -1.928146 -0.863477 2.795716
H -2.339648 1.159937 2.058688
H -3.756815 0.068633 1.973208
H -1.798630 -2.479852 0.320371
H -3.580756 -2.177851 0.375257
H -3.305219 0.514375 -1.950048
H -4.480000 0.383907 -0.610601
H -1.826210 -2.158302 -2.205985
H -2.894313 -3.500868 -1.707618
H -3.606564 -1.929188 -2.170867
H -3.588641 2.591199 0.359520
H -2.405458 2.690386 -0.975488
H -4.160423 2.807620 -1.319667
H -2.445083 -1.843667 2.826327
H -0.893729 -1.060207 2.442340
H -1.898606 -0.468125 3.830598
As 2.476532 -0.086058 -0.044524
C 3.115698 -1.720861 -0.897769
C 2.876811 -0.432241 1.832330
C 3.763426 1.292487 -0.575374
H 2.425616 -2.507174 -0.535119
H 4.162010 -1.947703 -0.614760
H 3.024726 -1.624554 -1.996208
H 2.157710 -1.226471 2.112071
H 2.675101 0.480742 2.423212
H 3.923291 -0.765242 1.973562
H 3.690518 1.451398 -1.668218
H 4.795797 0.994350 -0.306989
H 3.498204 2.236397 -0.061434
C 0.002429 1.929714 0.218867
O -0.022447 3.078074 0.485831
F 0.296095 -1.793646 0.692974
