35

Ir 0.018529 0.093740 -0.132406
H 0.183185 0.939736 -1.650784
H 0.159385 0.026849 -1.951279
C -1.983775 0.091767 -0.129210
C -4.137442 -0.343476 0.473416
C -4.177674 0.437030 -0.649477
H -4.943843 -0.769972 1.076898
H -5.023996 0.824162 -1.224164
C -2.468548 1.508015 -2.142166
H -1.687576 2.229767 -1.833559
H -2.057056 0.874900 -2.953761
H -3.353973 2.053452 -2.517256
C -2.322368 -1.322915 1.912761
H -1.553245 -2.040356 1.563301
H -1.870516 -0.655815 2.672552
H -3.180047 -1.862336 2.356027
N -2.799064 -0.544858 0.777084
N -2.859446 0.700512 -1.000575
N 2.206070 0.056688 -0.101876
C 5.019023 0.075028 -0.153069
C 4.298318 1.234440 0.167945
C 2.900093 1.186529 0.181425
C 2.901023 -1.067726 -0.402094
C 4.299920 -1.093682 -0.440239
H 6.119522 0.082525 -0.176379
H 4.806769 2.179538 0.407744
H 2.291817 2.068760 0.427651
H 2.282189 -1.958143 -0.603108
H 4.811203 -2.034032 -0.693057
C 0.014028 1.113155 1.444705
N 0.047338 1.786824 2.482637
H 0.015435 1.319246 3.401653
C -0.031490 -1.971804 -0.341486
C -0.061752 -3.212632 -0.384339
H -0.086410 -4.292824 -0.437102
