30

Ir 0.159337 0.146888 -0.182682
H 0.178815 0.137558 -1.913273
H 0.223112 -0.814098 -1.721774
P -2.112251 0.043697 -0.101194
C -5.229924 -0.014344 -0.194239
C -4.530700 -1.234933 -0.214261
C -3.135220 -1.350770 -0.177133
C -3.193320 1.397094 -0.104616
C -4.584902 1.233899 -0.136823
H -6.329791 -0.037474 -0.221438
H -5.115983 -2.168993 -0.255304
H -2.635307 -2.329161 -0.148297
H -2.755004 2.406324 -0.067071
H -5.208254 2.143553 -0.120680
N 2.298557 0.185034 -0.214725
C 5.108539 0.084507 -0.219786
C 4.352254 -0.957119 -0.768734
C 2.955218 -0.881468 -0.737339
C 3.032333 1.197036 0.313023
C 4.428646 1.180088 0.333939
H 6.208256 0.046308 -0.222686
H 4.828269 -1.840186 -1.217760
H 2.332413 -1.685839 -1.145279
H 2.473151 2.043515 0.732852
H 4.967455 2.025694 0.784297
C 0.044972 1.862058 0.561454
O -0.037641 2.931565 1.039789
N 0.352976 -1.876819 0.772949
O 1.480547 -2.332408 1.011992
O -0.667958 -2.492508 1.105765
