33

Ir 0.000004 0.081696 0.169889
H -0.000124 -0.276761 1.971913
H -0.000129 -1.120341 1.837203
N 2.176134 0.020598 0.113024
C 2.584318 -0.117268 -1.313983
C 2.784402 1.248335 0.690228
C 2.688908 -1.158286 0.866511
H 2.443210 2.136144 0.129291
H 3.894917 1.179397 0.645932
H 2.460113 1.355826 1.741126
H 2.212700 -2.071464 0.462973
H 2.426529 -1.050498 1.934721
H 3.795351 -1.216170 0.766806
H 2.232622 0.764504 -1.878702
H 2.105737 -1.025680 -1.725813
H 3.693091 -0.191296 -1.388163
N -2.176132 0.020418 0.113027
C -2.584258 -0.116260 -1.314105
C -2.688924 -1.159128 0.865472
C -2.784420 1.247643 0.691304
H -2.212660 -2.071958 0.461221
H -3.795361 -1.216919 0.765670
H -2.426597 -1.052248 1.933787
H -2.443250 2.135945 0.131128
H -2.460119 1.354219 1.742291
H -3.894935 1.178721 0.646972
H -2.105642 -1.024326 -1.726657
H -2.232591 0.765984 -1.878098
H -3.693024 -0.190294 -1.388397
C -0.000142 1.792609 -0.443682
N -0.000348 2.975912 -0.823411
H -0.000337 3.194154 -1.829568
Cl 0.000196 -2.317170 -0.735650
