37

Ir -0.182615 -0.212459 -0.127453
H -0.213625 -0.915286 -1.681864
H -0.136491 -0.004988 -1.963208
As 2.275447 -0.386019 -0.043687
C 3.107899 0.608897 1.423371
C 3.264796 0.323985 -1.578099
C 3.024806 -2.183082 0.176264
H 2.962379 1.689257 1.229111
H 4.190566 0.382843 1.481717
H 2.608822 0.333115 2.371093
H 3.091778 1.417449 -1.616589
H 2.883582 -0.143069 -2.505873
H 4.348274 0.121742 -1.469220
H 2.537851 -2.655613 1.050827
H 4.122486 -2.146864 0.318038
H 2.780020 -2.780291 -0.722942
C -2.210525 0.063376 -0.091153
C -4.266757 0.879556 0.432949
C -4.443870 -0.102386 -0.505296
H -4.991774 1.519313 0.944755
H -5.351763 -0.485286 -0.980525
C -2.921361 -1.657643 -1.763740
H -2.535746 -1.243564 -2.717705
H -2.161820 -2.346061 -1.347900
H -3.860525 -2.207677 -1.958687
C -2.292331 1.847747 1.661641
H -1.376553 2.289173 1.217181
H -3.017105 2.637362 1.932582
H -2.014386 1.270557 2.566429
N -2.903880 0.964805 0.674374
N -3.181011 -0.595876 -0.805317
C -0.305815 -1.440813 1.257034
N -0.374269 -2.377309 2.060288
H -0.346046 -2.207514 3.073905
N 0.126689 1.976177 -0.247270
C 1.051026 2.750740 -0.357560
O 1.966472 3.532065 -0.459068
