37

Ir -0.060255 -0.131673 0.138409
H -0.229128 -1.202555 1.515163
H -0.187167 -0.347392 1.941851
N -2.254722 -0.097520 0.112911
C -5.066551 -0.113143 0.082952
C -4.338517 -1.260001 -0.265561
C -2.940495 -1.211910 -0.238125
C -2.955748 1.013321 0.444138
C -4.355395 1.040357 0.442035
H -6.167274 -0.118828 0.072630
H -4.841456 -2.192888 -0.558912
H -2.321518 -2.081976 -0.501219
H -2.340351 1.889607 0.710101
H -4.873571 1.969538 0.720687
C 1.936752 -0.120161 0.104751
C 4.183390 -0.443994 0.689907
C 4.114387 0.355118 -0.614490
H 4.485912 0.194100 1.554849
H 4.423192 -0.254060 -1.497899
C 2.206519 1.557776 -1.743191
H 2.048040 1.008684 -2.697073
H 1.248558 2.008322 -1.423582
H 2.949083 2.365513 -1.902225
C 2.443675 -1.765612 1.932173
H 2.304205 -1.219239 2.893382
H 1.501427 -2.292971 1.689774
H 3.247878 -2.516598 2.068982
N 2.797795 -0.889347 0.842242
N 2.691882 0.683089 -0.693304
H 4.737527 1.272357 -0.599798
H 4.879931 -1.306046 0.641857
C -0.037078 -0.763022 -1.630710
N 0.018708 -0.934300 -2.856578
H -0.032102 -1.894438 -3.228437
C -0.022469 1.862751 0.689048
C -0.000591 3.079431 0.932978
H 0.023551 4.138800 1.150069
