34

Ir -0.000013 0.143859 0.150049
H 0.000070 0.062200 2.023274
H -0.000005 -0.787301 2.008070
N 2.196000 0.175357 0.179585
C 2.712594 -0.070700 -1.197649
C 2.688740 1.496818 0.655264
C 2.733899 -0.869600 1.096449
H 2.372379 2.294613 -0.039566
H 3.799868 1.482956 0.714275
H 2.267397 1.711801 1.653994
H 2.350717 -1.851277 0.763877
H 2.406336 -0.652082 2.129525
H 3.845328 -0.862614 1.059630
H 2.334148 0.716038 -1.874661
H 2.351128 -1.060591 -1.528141
H 3.825644 -0.053713 -1.192431
N -2.196018 0.175179 0.179700
C -2.688777 1.496429 0.655944
C -2.712621 -0.070355 -1.197627
C -2.733874 -0.870171 1.096137
H -2.334300 0.716714 -1.874322
H -3.825673 -0.053512 -1.192370
H -2.351013 -1.060063 -1.528527
H -2.406013 -0.653273 2.129249
H -2.350940 -1.851740 0.762975
H -3.845310 -0.862963 1.059607
H -2.372356 2.294533 -0.038503
H -2.267493 1.710958 1.654797
H -3.799908 1.482553 0.714888
C -0.000152 1.781250 -0.667745
O -0.000188 2.767621 -1.321060
N 0.000112 -2.012983 -0.421506
O -1.072316 -2.604011 -0.663138
O 1.072685 -2.604273 -0.661867
