29

Ir -0.027760 -0.108934 -0.298403
H -0.055954 -0.637175 -1.929520
H -0.024702 -1.492914 -1.495136
N -2.095696 -0.237704 -0.228054
C -4.289550 0.158854 -0.514104
C -3.019518 0.623115 -0.794223
N -4.108174 -0.993333 0.228674
C -2.775847 -1.209058 0.389357
H -4.844222 -1.591959 0.602771
H -5.279818 0.542581 -0.775945
H -2.699087 1.509738 -1.349289
H -2.286265 -2.023140 0.946091
N 2.018354 -0.081313 -0.286673
C 4.224813 -0.419025 0.477173
O 4.171739 -0.076942 -0.947068
C 2.871869 0.016831 -1.252950
C 2.785089 -0.205773 0.974812
H 2.642486 0.730039 1.555588
H 2.357704 -1.048097 1.557851
H 4.981252 0.232662 0.954084
H 4.556616 -1.476150 0.548061
H 2.610320 0.178541 -2.308099
C -0.115594 1.705722 0.118224
N -0.213637 2.918819 0.262194
C -0.268959 3.803619 1.392979
H -1.222767 4.373157 1.386648
H 0.548097 4.553968 1.333711
H -0.187593 3.269846 2.366782
Cl 0.116930 -2.129919 1.328201
