33

Ir -0.011837 -0.430098 -0.190769
H -0.303756 -0.900745 -1.801988
H 0.002198 0.013040 -1.971357
N 2.058702 -1.127104 -0.323402
C 2.763171 -0.887398 0.970200
C 2.087099 -2.585189 -0.625969
C 2.802171 -0.410509 -1.400120
H 1.557356 -3.142174 0.166877
H 3.140850 -2.936955 -0.693020
H 1.574310 -2.771152 -1.586774
H 2.849124 0.669259 -1.174404
H 2.288682 -0.563291 -2.366144
H 3.836573 -0.812852 -1.466414
H 2.231825 -1.417861 1.779588
H 2.783535 0.195384 1.190371
H 3.807752 -1.263952 0.901640
N -1.967034 0.275532 -0.089158
C -4.606220 1.247845 -0.067711
C -3.514101 2.125557 -0.120173
C -2.214277 1.612025 -0.127186
C -3.022748 -0.578985 -0.031883
C -4.346008 -0.129145 -0.018965
H -5.638699 1.628376 -0.063011
H -3.654070 3.215638 -0.154087
H -1.313317 2.245559 -0.155781
H -2.773294 -1.648019 0.006421
H -5.159748 -0.867024 0.027723
C -0.378964 -1.715700 1.094187
N -0.676943 -2.667478 1.825251
H -0.599330 -2.595511 2.848917
N 0.737180 1.599687 0.041103
C 1.681113 2.307420 0.278553
S 2.981918 3.224363 0.582404
