31

Ir -0.219334 -0.388173 -0.194385
H -0.408667 -0.805744 -1.859809
H -0.180307 0.104556 -1.983609
P 2.006940 -0.939942 -0.189709
C 2.867675 -0.513928 1.373810
C 2.992881 -0.088826 -1.483230
C 2.367111 -2.726110 -0.438094
H 2.840368 0.586750 1.507590
H 3.922884 -0.852644 1.341114
H 2.341956 -0.997275 2.219299
H 2.980129 1.002607 -1.284922
H 2.546897 -0.286307 -2.476922
H 4.040979 -0.449584 -1.464720
H 1.868832 -3.309511 0.360541
H 3.458581 -2.919229 -0.416009
H 1.950163 -3.046460 -1.412502
N -2.242104 0.318876 -0.121793
C -4.603271 0.497929 -0.060979
O -3.930606 1.789928 0.063712
C -2.619385 1.546652 0.022362
C -3.447766 -0.523415 -0.197319
H -3.454879 -1.075587 -1.158981
H -3.422688 -1.276296 0.616882
H -5.266482 0.548768 -0.946960
H -5.224423 0.354490 0.845248
H -1.917281 2.390552 0.114927
C -0.555529 -1.784313 0.975180
O -0.752457 -2.704421 1.683697
N 0.360098 1.697275 0.100926
C 1.304688 2.427569 0.255085
S 2.594290 3.388057 0.456126
