34

Ir 0.330812 0.111824 -0.114927
H 0.319641 1.194763 -1.412497
H 0.299591 0.382232 -1.956515
C -1.666828 -0.038391 -0.093621
C -3.895331 0.351277 -0.346909
C -3.748620 -0.903261 0.183654
H -4.791959 0.911545 -0.627839
H -4.494245 -1.652667 0.465243
C -1.794778 -2.321411 0.923557
H -2.495862 -3.167195 0.795175
H -0.833509 -2.516914 0.393643
H -1.608495 -2.155938 2.004414
C -2.317023 2.177598 -1.058140
H -1.521908 2.659192 -0.458970
H -1.957040 2.087345 -2.103560
H -3.232282 2.797761 -1.038126
N -2.615965 0.869150 -0.501117
N -2.388825 -1.124300 0.332961
N 2.568663 -0.056688 -0.173501
C 2.963994 -0.559851 -1.513781
C 3.264176 1.212604 0.122585
C 2.911134 -1.090513 0.837257
H 2.974242 1.975235 -0.624164
H 4.369741 1.072368 0.094584
H 2.968440 1.575826 1.124327
H 2.304338 -1.985178 0.598689
H 2.642848 -0.722515 1.844528
H 3.999498 -1.326998 0.801398
H 2.751202 0.214148 -2.274450
H 2.351763 -1.458801 -1.720549
H 4.050734 -0.803776 -1.531487
C 0.312707 1.012565 1.491155
O 0.298339 1.653770 2.482936
F 0.546701 -1.975761 -0.696767
