36

Ir -0.080181 -0.201268 -0.370024
H -0.267861 -0.288023 -2.075043
H -0.038943 0.639021 -2.013231
P 2.123804 -0.796979 -0.451248
C 2.975728 -0.732055 1.174876
C 3.166496 0.267238 -1.525912
C 2.438926 -2.503313 -1.062570
H 2.974942 0.317344 1.534314
H 4.022120 -1.087544 1.084081
H 2.422826 -1.363382 1.896279
H 3.189466 1.292227 -1.102464
H 2.729663 0.302441 -2.542468
H 4.200321 -0.130101 -1.576212
H 1.879919 -3.218914 -0.429013
H 3.521032 -2.743878 -1.044125
H 2.053990 -2.588608 -2.097280
N -2.149719 0.441487 -0.189212
C -4.816347 1.298321 -0.010523
C -3.758048 2.179148 0.255809
C -2.440703 1.718331 0.158166
C -3.168850 -0.414550 -0.442496
C -4.509931 -0.023854 -0.364238
H -5.861890 1.635343 0.057712
H -3.940393 3.225345 0.541202
H -1.562140 2.354531 0.357168
H -2.877379 -1.440596 -0.710350
H -5.299212 -0.758132 -0.580979
C -0.449544 -1.791841 0.535697
N -0.721165 -2.879757 1.027457
C -0.768635 -3.422454 2.357623
H -0.096925 -4.303319 2.434146
H -1.793559 -3.783081 2.586178
H -0.474313 -2.682899 3.135347
N 0.553597 1.767874 0.307509
C 1.500552 2.428946 0.645675
S 2.796148 3.296490 1.090773
