54

Ir -0.980815 -0.332494 -0.312879
H -0.863727 -0.927751 -1.892646
H -0.892166 0.050604 -2.074154
P 1.344203 -0.089432 -0.089607
C 1.912423 -2.799283 -0.545888
C 2.286780 -1.648991 0.179903
C 1.789597 0.981090 1.336331
C 1.201631 0.702284 2.589253
C 1.495825 1.512841 3.693054
C 2.365984 2.607140 3.556177
C 2.947323 2.887113 2.311292
C 2.663970 2.076682 1.200557
C 2.155380 0.687130 -1.548844
C 1.512665 1.784766 -2.163904
C 2.116861 2.417007 -3.260325
C 3.350273 1.959164 -3.754447
C 3.985798 0.865488 -3.145876
C 3.393902 0.229422 -2.042548
C 3.380755 -1.710238 1.066213
C 4.093003 -2.910667 1.221213
C 3.721959 -4.051479 0.492149
C 2.631627 -3.993291 -0.392988
H 1.043104 -2.752031 -1.220924
H 0.500876 -0.140339 2.693134
H 1.026771 1.297159 4.664979
H 2.579832 3.252530 4.421781
H 3.619754 3.750757 2.195860
H 3.113557 2.307041 0.223448
H 0.544550 2.135551 -1.765336
H 1.615216 3.274456 -3.734645
H 3.817086 2.455842 -4.619124
H 4.950371 0.500703 -3.531217
H 3.897177 -0.626857 -1.568987
H 3.671669 -0.817810 1.641021
H 4.943007 -2.953121 1.919433
H 4.281413 -4.991421 0.616848
H 2.335587 -4.886572 -0.964427
P -3.290977 -0.293857 -0.288499
C -6.407459 -0.069294 -0.191665
C -5.820190 -1.333928 -0.010898
C -4.437644 -1.568181 -0.034791
C -4.256769 1.132978 -0.475971
C -5.654532 1.099878 -0.412645
H -7.504561 0.010387 -0.156212
H -6.485930 -2.196651 0.160648
H -4.045253 -2.585658 0.117415
H -3.704349 2.072339 -0.634732
H -6.197613 2.051620 -0.540278
C -0.942555 -1.699096 0.970213
N -0.880388 -2.544462 1.856192
H -0.765700 -3.551536 1.693617
N -1.068435 1.847903 -0.142416
C -0.838060 2.679187 0.715405
O -0.625725 3.558960 1.501940
