33

Ir -0.071412 0.038692 -0.386726
H 0.030371 -0.044967 -2.087888
H -0.030473 -1.008659 -1.898586
N -2.120224 0.035913 -0.478522
C -4.318361 -0.821104 -0.521644
O -4.284578 0.625507 -0.292017
C -2.992396 0.957242 -0.217574
C -2.864829 -1.182884 -0.871345
H -2.695974 -1.359699 -1.954825
H -2.448965 -2.044666 -0.313387
H -5.050120 -1.019940 -1.327005
H -4.670838 -1.294503 0.418428
H -2.745718 1.993286 0.053998
N 1.997689 -0.106320 -0.297222
C 4.796369 -0.409365 -0.287925
C 3.949789 -1.518720 -0.152000
C 2.564144 -1.336458 -0.158525
C 2.816150 0.971954 -0.424782
C 4.208751 0.857215 -0.422174
H 5.890340 -0.528060 -0.288684
H 4.350745 -2.536102 -0.036853
H 1.842586 -2.159647 -0.028192
H 2.315201 1.943711 -0.532561
H 4.819164 1.765390 -0.529861
C -0.050386 1.749095 0.357888
N -0.025852 2.914346 0.743270
C -0.042140 3.548260 2.036016
H -0.882756 4.271253 2.096606
H 0.889900 4.133780 2.183263
H -0.136985 2.821115 2.872799
N -0.246809 -1.910268 0.626322
C -0.423948 -2.320663 1.757661
O -0.599206 -2.802349 2.844533
