52

Ir 1.242572 -0.056616 0.156936
H 1.227424 -0.389643 1.852896
H 1.246060 0.607824 1.815478
P -1.043529 -0.024641 0.039090
C -1.284152 -2.712828 0.818514
C -1.866336 -1.680587 0.053870
C -1.741485 0.814244 -1.448256
C -1.006338 0.804199 -2.649696
C -1.538824 1.397035 -3.803573
C -2.800936 2.011731 -3.764419
C -3.531004 2.036079 -2.565219
C -3.004782 1.441077 -1.408024
C -1.831484 0.876061 1.444844
C -1.475875 2.228487 1.648976
C -2.049751 2.946968 2.706921
C -2.969916 2.327731 3.570851
C -3.319753 0.983814 3.371337
C -2.755610 0.256960 2.309266
C -3.068532 -1.926834 -0.640475
C -3.681665 -3.187365 -0.562835
C -3.104355 -4.208104 0.209151
C -1.905019 -3.967800 0.899402
H -0.327686 -2.525530 1.330922
H -0.002234 0.352991 -2.657928
H -0.954796 1.394180 -4.736583
H -3.211816 2.486150 -4.668962
H -4.514254 2.529636 -2.525705
H -3.573914 1.475545 -0.466253
H -0.745503 2.714233 0.981751
H -1.770554 4.000912 2.858764
H -3.414264 2.895618 4.402918
H -4.038867 0.492566 4.044900
H -3.037328 -0.795388 2.155242
H -3.526352 -1.134879 -1.251442
H -4.616471 -3.372153 -1.114229
H -3.586410 -5.196318 0.266450
H -1.441138 -4.767173 1.497417
N 3.388888 -0.002690 0.215342
C 5.666057 -0.625670 0.397130
O 5.487334 0.787468 0.067407
C 4.171793 0.997683 -0.024966
C 4.225623 -1.167877 0.552304
H 3.984838 -1.503156 1.581859
H 3.983679 -2.004587 -0.133344
H 6.273155 -0.681725 1.321845
H 6.232725 -1.093131 -0.433164
H 3.818517 2.005622 -0.298851
C 1.342110 -1.568083 -0.973771
N 1.462956 -2.587950 -1.654077
H 1.477480 -2.558637 -2.682631
C 1.300079 1.944335 -0.369359
N 1.430282 3.071892 -0.701677
