35

Ir -0.000002 -0.135961 0.196685
H -0.000057 0.072836 2.067020
H 0.000018 0.911705 2.039514
As -2.438334 -0.087800 0.031395
C -3.119094 0.438555 -1.722287
C -3.353569 1.133724 1.252736
C -3.358914 -1.787145 0.357798
H -2.670822 1.423254 -1.949549
H -4.224719 0.502463 -1.710191
H -2.787749 -0.306878 -2.469538
H -2.922344 2.135410 1.070909
H -3.152276 0.818316 2.294387
H -4.444231 1.134682 1.060998
H -2.922623 -2.562447 -0.299901
H -4.445088 -1.688132 0.166227
H -3.187980 -2.088029 1.408981
As 2.438335 -0.087714 0.031484
C 3.359016 -1.786734 0.359312
C 3.353430 1.134882 1.251856
C 3.119076 0.437234 -1.722617
H 3.187897 -2.086876 1.410677
H 4.445220 -1.687768 0.167885
H 2.922919 -2.562540 -0.297923
H 3.152107 0.820320 2.293756
H 2.922170 2.136401 1.069194
H 4.444101 1.135735 1.060168
H 2.787808 -0.308856 -2.469247
H 4.224695 0.501269 -1.710576
H 2.670684 1.421693 -1.950682
C 0.000086 -1.905068 -0.342413
N 0.000217 -3.078141 -0.722804
H 0.000323 -3.345082 -1.714566
N -0.000043 1.991887 -0.320156
O 1.078509 2.593207 -0.504813
O -1.078669 2.593621 -0.503050
