80

Ir -0.019091 -0.031756 0.402204
H -0.044015 -0.131127 2.129220
H -0.031111 0.804370 2.075752
P -2.354411 -0.002919 0.203467
C -2.703926 -2.583499 1.236268
C -3.197609 -1.639747 0.311170
C -2.913165 0.702976 -1.405856
C -2.115614 0.501287 -2.550796
C -2.513304 1.027593 -3.787226
C -3.712713 1.750572 -3.893539
C -4.511543 1.951836 -2.756656
C -4.113341 1.435301 -1.513270
C -3.211504 1.034103 1.463436
C -2.703047 2.333117 1.690747
C -3.323709 3.164956 2.633240
C -4.439442 2.710900 3.358433
C -4.938824 1.418180 3.137071
C -4.329717 0.578271 2.189457
C -4.315687 -1.965561 -0.483055
C -4.935236 -3.218351 -0.346126
C -4.447234 -4.150065 0.583877
C -3.331150 -3.829759 1.375132
H -1.809614 -2.336521 1.829827
H -1.160340 -0.038035 -2.451636
H -1.869684 0.888594 -4.668880
H -4.018740 2.172050 -4.863416
H -5.447003 2.527338 -2.832921
H -4.731656 1.614582 -0.620285
H -1.820774 2.672160 1.118889
H -2.928452 4.178012 2.805877
H -4.919580 3.366998 4.101013
H -5.809982 1.056423 3.704941
H -4.725550 -0.434241 2.018159
H -4.700206 -1.240159 -1.215848
H -5.804793 -3.467169 -0.973893
H -4.933886 -5.132214 0.687833
H -2.938214 -4.560437 2.098717
P 2.328451 0.028965 0.241739
C 2.664762 -2.206925 1.909508
C 3.238413 -0.987359 1.487958
C 3.110206 1.691755 0.351779
C 2.551294 2.651309 1.220631
C 3.159952 3.906365 1.362615
C 4.319655 4.217556 0.633768
C 4.872574 3.269039 -0.241029
C 4.270854 2.008818 -0.384275
C 2.903392 -0.626341 -1.387225
C 2.453691 0.025695 -2.558301
C 2.796346 -0.484636 -3.817942
C 3.574995 -1.650967 -3.925663
C 4.022191 -2.298841 -2.764401
C 3.692479 -1.787139 -1.496915
C 4.485403 -0.589209 2.012462
C 5.150141 -1.402490 2.943977
C 4.581319 -2.619041 3.353441
C 3.339784 -3.019845 2.832478
H 1.685537 -2.511571 1.509260
H 1.623369 2.417635 1.762549
H 2.714099 4.653310 2.036962
H 4.788644 5.207935 0.740205
H 5.775662 3.511147 -0.822090
H 4.702478 1.270905 -1.077559
H 1.836240 0.936033 -2.495776
H 2.446482 0.034641 -4.723426
H 3.835033 -2.052226 -4.917399
H 4.636409 -3.209611 -2.839714
H 4.045801 -2.300638 -0.590256
H 4.936532 0.363657 1.697358
H 6.119582 -1.079605 3.353888
H 5.104516 -3.254192 4.084917
H 2.886701 -3.970698 3.152850
C 0.054358 -1.697934 -0.443301
N 0.145971 -2.816865 -0.917389
C 0.230750 -3.412648 -2.218982
H -0.448764 -4.286879 -2.286134
H 1.265113 -3.774978 -2.398504
H -0.025479 -2.695166 -3.029259
N -0.129398 2.056976 -0.280488
C 0.097445 2.506962 -1.385944
O 0.328703 2.984500 -2.465695
