41

Ir 0.433776 0.025537 -0.171349
H 0.409984 -0.116664 -1.852932
H 0.416949 -1.087087 -1.659976
P -1.834035 -0.150930 0.004954
C -2.616011 0.919797 1.301580
C -2.351386 -1.865214 0.474001
C -1.847005 -2.965651 -0.462128
C -2.812317 0.230179 -1.524241
C -2.580132 1.635411 -2.083997
C -2.019226 0.736786 2.698566
H -2.473873 1.965122 0.955396
H -3.709118 0.715562 1.288858
H -1.918401 -2.021047 1.482885
H -3.460249 -1.852001 0.565957
H -2.509474 -0.539942 -2.265056
H -3.884852 0.051189 -1.290491
H -0.741329 -2.987768 -0.403707
H -2.237501 -3.951684 -0.137403
H -2.162735 -2.813214 -1.514746
H -2.906453 2.424313 -1.376244
H -1.504681 1.802930 -2.293906
H -3.145356 1.781204 -3.026678
H -2.198884 -0.282033 3.096526
H -0.922592 0.899498 2.677311
H -2.464796 1.459925 3.411051
N 2.669615 -0.110402 -0.066145
C 3.357158 0.993429 -0.767344
C 2.997137 -0.101394 1.382886
C 3.071734 -1.420523 -0.638207
H 2.712890 0.874286 1.817515
H 4.086963 -0.276433 1.534739
H 2.400760 -0.903317 1.859243
H 2.877143 -1.420226 -1.726674
H 2.445613 -2.192966 -0.151275
H 4.154073 -1.607327 -0.455405
H 3.057205 1.961237 -0.324522
H 3.064767 0.991835 -1.833887
H 4.462976 0.880321 -0.687426
C 0.376025 1.816123 0.262296
O 0.307444 2.975778 0.476699
F 0.628673 -1.818356 0.913263
