34

Ir -0.027790 -0.468623 -0.227450
H -0.165324 -0.886510 -1.901408
H 0.051665 0.016871 -2.027169
P 2.260504 -0.945362 -0.147529
C 3.044418 -0.459612 1.439383
C 3.262158 -0.068774 -1.412932
C 2.701337 -2.718825 -0.355247
H 2.963102 0.640451 1.554173
H 4.114413 -0.750612 1.451094
H 2.509352 -0.952324 2.273414
H 3.190336 1.023332 -1.231917
H 2.867326 -0.298284 -2.421325
H 4.324571 -0.379268 -1.347128
H 2.193530 -3.311203 0.430850
H 3.797600 -2.870343 -0.287185
H 2.336615 -3.068540 -1.340526
As -2.320903 0.400123 -0.041816
C -3.833885 -0.837258 -0.126598
C -2.754848 1.766520 -1.368354
C -2.594975 1.339545 1.646622
H -3.835826 -1.333248 -1.115843
H -4.791248 -0.303053 0.029699
H -3.699486 -1.608573 0.655958
H -2.756261 1.305818 -2.374490
H -1.953214 2.528154 -1.320101
H -3.739773 2.227170 -1.158958
H -2.510872 0.610159 2.474253
H -3.583511 1.837953 1.672458
H -1.779421 2.081912 1.738046
C -0.405398 -1.931437 0.843192
O -0.642186 -2.884653 1.491649
N 0.521423 1.609688 0.069299
C 1.404229 2.407673 0.241210
S 2.614861 3.460807 0.468165
