31

Ir 0.154042 0.082874 -0.177582
H 0.045220 0.377789 -1.900824
H 0.049318 -0.587297 -1.866639
N -2.013852 -0.002664 -0.086696
C -2.768623 1.093816 -0.342409
C -4.167786 1.028124 -0.318518
N -4.838302 -0.104210 -0.054055
C -4.078793 -1.182209 0.197005
C -2.677051 -1.151596 0.189473
H -2.228573 2.024211 -0.570125
H -4.759989 1.936292 -0.526051
H -4.598722 -2.129900 0.420395
H -2.049203 -2.031326 0.406805
P 2.437558 -0.027775 -0.126398
C 3.309396 1.509078 -0.639505
C 3.141499 -1.328072 -1.213565
C 3.122539 -0.394012 1.535569
H 3.006688 1.767290 -1.672749
H 4.409890 1.381816 -0.592139
H 3.000945 2.336890 0.028406
H 2.849066 -1.119669 -2.261009
H 2.697695 -2.294988 -0.907064
H 4.246442 -1.361126 -1.130966
H 2.826230 0.418564 2.226680
H 4.227205 -0.483862 1.506729
H 2.660593 -1.338090 1.883581
C 0.206803 1.723680 0.754340
O 0.279950 2.713590 1.385610
C 0.274973 -1.882200 0.469856
C 0.381547 -3.044521 0.892852
H 0.451065 -4.054435 1.274574
