29

Ir -0.274698 0.105919 -0.258042
H -0.327273 -0.029155 -1.946845
H -0.395622 -1.007349 -1.646224
N -2.402944 0.088390 -0.174735
C -4.620535 -0.736755 -0.120304
O -4.508823 0.623892 0.412707
C -3.212508 0.938873 0.364876
C -3.200846 -1.071213 -0.621900
H -3.124145 -1.158044 -1.725873
H -2.755729 -1.978802 -0.159180
H -5.395344 -0.726441 -0.910992
H -4.959014 -1.387364 0.711745
H -2.910894 1.905532 0.794801
P 1.962357 -0.007310 -0.120113
C 5.079398 -0.166184 0.082384
C 4.340754 -1.364057 0.067996
C 2.944498 -1.431545 -0.015464
C 3.091171 1.307945 -0.084103
C 4.473888 1.101340 0.015133
H 6.176014 -0.223352 0.154741
H 4.893637 -2.316485 0.134882
H 2.405926 -2.391118 0.021780
H 2.683188 2.329244 -0.130443
H 5.125179 1.991412 0.039563
C -0.256306 1.863919 0.405077
N -0.303525 2.980759 0.923414
H -0.295876 3.843164 0.362103
S -0.370116 -2.147776 0.917291
H -0.303010 -1.662071 2.189620
