31

Ir 0.305282 -0.361431 -0.168303
H 0.461831 -0.815079 -1.819583
H 0.296030 0.117511 -1.949725
N 2.394588 0.115774 -0.088383
C 2.808501 1.401418 0.019824
C 4.176266 1.707863 0.037903
N 5.137319 0.774391 -0.045128
C 4.711099 -0.493865 -0.145642
C 3.353156 -0.838669 -0.170191
H 2.008288 2.156345 0.093688
H 4.494863 2.760861 0.125286
H 5.476044 -1.286806 -0.212195
H 3.013760 -1.880802 -0.256183
As -2.080476 -0.676770 -0.156505
C -2.678822 -2.522801 -0.382351
C -3.039956 0.309889 -1.537829
C -2.949819 -0.100769 1.489851
H -2.317225 -2.898748 -1.358164
H -3.783831 -2.579945 -0.339861
H -2.235754 -3.138700 0.423345
H -2.603606 0.069520 -2.525426
H -2.927047 1.392817 -1.329220
H -4.112276 0.034234 -1.516700
H -2.451749 -0.592981 2.345751
H -4.023446 -0.370772 1.461863
H -2.840193 0.999036 1.572654
C 0.481425 -1.820396 0.964328
O 0.571304 -2.782712 1.634907
N -0.134762 1.743759 0.141049
C -0.998852 2.572856 0.268981
S -2.177198 3.670509 0.437950
