28

Ir 0.318442 -0.060649 -0.189886
H 0.405433 -0.151985 -1.880886
H 0.439607 0.855774 -1.714471
N 2.467692 -0.053977 -0.144818
C 4.614424 -0.686579 -0.329108
C 3.305453 -1.105718 -0.463619
N 4.540229 0.633861 0.076630
C 3.232942 0.988337 0.181059
H 5.330217 1.250714 0.267731
H 5.565756 -1.203989 -0.484650
H 2.906131 -2.081830 -0.756222
H 2.814533 1.960212 0.493553
P -1.918499 -0.031116 -0.128103
C -5.045711 -0.017198 -0.057196
C -4.377903 -1.255177 -0.035153
C -2.984137 -1.398204 -0.065919
C -2.971296 1.346154 -0.136920
C -4.365228 1.213779 -0.104689
H -6.145992 -0.011251 -0.033227
H -4.987137 -2.174137 0.005387
H -2.523078 -2.398025 -0.047160
H -2.478558 2.331185 -0.138389
H -4.965665 2.139508 -0.111734
C 0.339038 -1.714001 0.706404
N 0.379912 -2.855963 1.164276
H 0.383077 -3.037168 2.176868
S 0.321678 2.334063 0.682745
H 0.165989 2.016859 2.000242
