42

Ir 0.005973 0.204625 -0.024383
H 0.002192 1.865513 -0.576304
H -0.020550 1.405791 -1.398356
C -2.075383 0.148289 0.017396
C -4.233689 -0.768609 -0.137934
C -4.350025 0.760627 -0.083116
H -4.493558 -1.178566 -1.141375
H -4.825772 1.122301 0.858741
C -2.636397 2.592531 -0.089792
H -1.604977 2.725775 0.286042
H -2.722002 3.068612 -1.091849
H -3.335810 3.111613 0.601392
C -2.312132 -2.344681 0.202731
H -1.292316 -2.330636 0.624960
H -2.979559 -2.944528 0.856445
H -2.252105 -2.809080 -0.805044
N -2.811829 -0.987245 0.136666
N -2.947507 1.183718 -0.129627
H -4.927221 1.183354 -0.932130
H -4.871355 -1.283893 0.610671
C 2.081052 0.129866 -0.076639
C 4.344780 0.721881 -0.296476
C 4.249793 -0.756085 0.094223
H 4.660361 0.856901 -1.358328
H 4.576912 -0.935928 1.146195
C 2.304684 -2.349520 0.196069
H 2.196154 -2.559682 1.284498
H 1.325392 -2.463568 -0.303507
H 3.010031 -3.086390 -0.237840
C 2.635511 2.567389 -0.266069
H 2.561051 2.874689 -1.334674
H 1.666666 2.768268 0.228990
H 3.421097 3.182077 0.219392
N 2.961605 1.170234 -0.114798
N 2.813929 -1.015026 -0.041260
H 4.842049 -1.423495 -0.564347
H 5.042246 1.302641 0.341520
C 0.070739 -0.228124 1.799526
N 0.119976 -0.518754 2.999522
H 0.116887 -1.506773 3.294067
C -0.099993 -1.113446 -1.621129
N -0.197508 -1.956050 -2.445421
