24

Ir 0.002096 0.114687 -0.149784
H 0.007622 0.174308 -1.883304
H 0.002029 -0.756899 -1.774117
N -2.071242 0.086839 -0.167893
C -4.228245 0.682034 -0.382508
C -2.926170 1.130531 -0.477692
N -4.136221 -0.646732 -0.012297
C -2.825540 -0.981330 0.113448
H -4.916459 -1.283634 0.148578
H -5.185505 1.186421 -0.542447
H -2.540932 2.120261 -0.739679
H -2.399158 -1.954694 0.403956
N 2.072237 0.033577 -0.163199
C 4.176588 -0.742884 -0.072745
C 2.847423 -1.101153 0.020774
N 4.189898 0.619020 -0.311721
C 2.904372 1.059980 -0.363216
H 5.016859 1.204729 -0.426449
H 5.093849 -1.332611 0.013257
H 2.353950 -2.061470 0.222791
H 2.601907 2.098031 -0.532049
C 0.028140 1.644367 0.882081
O 0.067546 2.648791 1.498844
Cl -0.057531 -2.365523 0.642176
