57

Ir 0.922573 -0.144841 0.370291
H 0.868768 0.289525 2.167230
H 0.958674 1.108303 1.956363
P -1.388911 0.028902 0.096688
C -2.040032 -2.403524 1.329713
C -2.294506 -1.580482 0.211045
C -1.914388 0.699068 -1.539244
C -1.079207 0.491413 -2.655316
C -1.481903 0.933088 -3.923990
C -2.710157 1.595587 -4.084438
C -3.538121 1.816342 -2.971681
C -3.143565 1.370103 -1.700463
C -2.270652 1.111515 1.308861
C -1.760343 2.411508 1.521816
C -2.401384 3.275565 2.420807
C -3.546471 2.854364 3.118535
C -4.054776 1.563332 2.908669
C -3.423062 0.692838 2.004640
C -3.180217 -2.029796 -0.788080
C -3.804240 -3.283294 -0.667140
C -3.554763 -4.092802 0.451750
C -2.672758 -3.647804 1.452340
H -1.321172 -2.069271 2.094306
H -0.105162 -0.000804 -2.505588
H -0.822768 0.773681 -4.791149
H -3.019375 1.950994 -5.079667
H -4.496785 2.344335 -3.091388
H -3.792221 1.549173 -0.829116
H -0.861868 2.742474 0.971864
H -1.998856 4.288169 2.578316
H -4.043555 3.534602 3.827444
H -4.952196 1.226655 3.450562
H -3.831120 -0.315996 1.842705
H -3.380808 -1.401008 -1.668208
H -4.491330 -3.626548 -1.456030
H -4.045008 -5.074309 0.544321
H -2.465680 -4.280608 2.328982
As 3.362429 -0.216833 0.256209
C 4.263332 -1.849828 0.863205
C 4.298644 1.190896 1.239372
C 4.046125 -0.000864 -1.561695
H 4.074681 -1.977139 1.946259
H 5.353190 -1.797226 0.673691
H 3.823596 -2.712807 0.327922
H 4.091862 1.070352 2.319955
H 3.877837 2.153894 0.891122
H 5.389330 1.146241 1.053131
H 3.701026 -0.858608 -2.169527
H 5.152192 0.055663 -1.569701
H 3.599123 0.930995 -1.958569
C 0.844800 -1.953264 -0.008952
N 0.776581 -3.156272 -0.185297
C 0.521883 -4.098442 -1.229918
H -0.513876 -4.490134 -1.133013
H 1.210493 -4.964975 -1.151127
H 0.629663 -3.649715 -2.242864
Br 1.262435 2.332275 -0.647079
