56

Ir 1.195337 -0.053857 0.362114
H 1.145302 -0.247825 2.072185
H 1.160887 0.701329 2.048829
P -1.071923 -0.022066 0.142682
C -1.471911 -2.643728 1.063151
C -1.911210 -1.668209 0.143821
C -1.624894 0.760565 -1.431944
C -1.002530 0.352907 -2.632010
C -1.374906 0.941783 -3.847295
C -2.358879 1.944003 -3.876786
C -2.974841 2.353327 -2.685645
C -2.612554 1.763928 -1.463950
C -1.950989 0.926522 1.457716
C -1.394946 2.157573 1.871129
C -2.050238 2.925421 2.844956
C -3.250745 2.471970 3.417753
C -3.801388 1.246642 3.010397
C -3.157200 0.474625 2.029737
C -2.973176 -1.968054 -0.732113
C -3.586673 -3.231269 -0.688274
C -3.149769 -4.197558 0.231734
C -2.092782 -3.900225 1.109562
H -0.622719 -2.411514 1.725355
H -0.214806 -0.415679 -2.606452
H -0.879496 0.626117 -4.778156
H -2.635723 2.417047 -4.831432
H -3.736559 3.147738 -2.700912
H -3.091210 2.097719 -0.531488
H -0.451252 2.504395 1.416208
H -1.615753 3.886586 3.160156
H -3.758428 3.075725 4.185946
H -4.740171 0.885486 3.458062
H -3.594817 -0.483751 1.711877
H -3.315642 -1.213426 -1.456499
H -4.411307 -3.460497 -1.380732
H -3.631567 -5.187079 0.262965
H -1.743559 -4.656169 1.829951
N 3.328354 0.064361 0.416528
C 5.650557 -0.394488 0.432949
O 5.355238 1.033671 0.342034
C 4.023602 1.149725 0.324695
C 4.260039 -1.069933 0.517922
H 4.084468 -1.608190 1.471656
H 4.060264 -1.781893 -0.308289
H 6.284187 -0.551797 1.328097
H 6.229212 -0.675177 -0.469881
H 3.564333 2.146566 0.217978
C 1.236170 -1.608454 -0.670730
N 1.205023 -2.592019 -1.398834
C 1.040781 -4.006830 -1.213362
H -0.002824 -4.296840 -1.461102
H 1.243531 -4.328470 -0.167185
H 1.710654 -4.568428 -1.896709
N 1.277892 2.080375 -0.201195
C 0.845496 2.787723 -1.092328
O 0.447253 3.541223 -1.937708
