42

Ir -0.009409 0.066326 -0.365112
H -0.038056 -0.784503 -1.927504
H 0.004939 -1.514075 -1.436214
C -2.081669 0.216351 -0.322064
C -4.204569 0.840889 0.265999
C -4.309866 -0.256719 -0.541943
H -4.971978 1.440812 0.763636
H -5.187683 -0.812601 -0.884060
C -2.710134 -1.816849 -1.659742
H -2.175547 -1.556544 -2.593673
H -2.077018 -2.488799 -1.044040
H -3.656728 -2.327021 -1.915645
C -2.339469 2.183479 1.233506
H -1.392588 1.852993 1.697810
H -2.143369 3.099392 0.641269
H -3.084006 2.408212 2.020557
N -2.849311 1.111759 0.393616
N -3.018032 -0.620578 -0.891668
C 2.038162 -0.158140 -0.168952
C 4.162680 -0.218544 0.830113
C 4.298599 -0.583078 -0.653613
H 4.594068 0.785135 1.060075
H 4.526817 -1.665107 -0.802328
C 2.680888 -0.367630 -2.576192
H 2.582309 -1.424707 -2.915977
H 1.736345 0.166477 -2.790328
H 3.502274 0.107220 -3.151985
C 2.150586 0.098710 2.311960
H 2.240111 1.182884 2.556174
H 1.086800 -0.207338 2.325296
H 2.692477 -0.484131 3.084470
N 2.709176 -0.196940 1.010618
N 2.961754 -0.269228 -1.164302
H 5.079168 0.002759 -1.181848
H 4.640949 -0.954535 1.508510
C 0.275523 1.890899 -0.332748
N 0.547574 3.085522 -0.417053
C 0.724060 4.135092 0.546562
H -0.108403 4.870447 0.480919
H 1.657964 4.699218 0.338627
H 0.772142 3.761753 1.596145
Br -0.460667 -2.080730 1.273370
