34

Ir 0.026228 0.145912 -0.111424
H 0.208093 1.241646 -1.500690
H 0.173385 0.420694 -1.942237
C -1.981352 0.101919 -0.103203
C -4.115040 -0.442401 0.472565
C -4.185140 0.406122 -0.598610
H -4.904792 -0.932592 1.049017
H -5.045686 0.801190 -1.146108
C -2.516298 1.617832 -2.028443
H -1.786814 2.372006 -1.674496
H -2.053569 1.048625 -2.859177
H -3.426770 2.126055 -2.395165
C -2.262023 -1.464691 1.834356
H -1.504349 -2.157519 1.417407
H -1.789142 -0.847462 2.622557
H -3.108390 -2.031889 2.264255
N -2.770333 -0.617734 0.761680
N -2.877472 0.734494 -0.934277
N 2.214188 0.061070 -0.108891
C 5.026522 0.009880 -0.128345
C 4.331750 1.203720 0.114404
C 2.933085 1.188257 0.115884
C 2.883602 -1.094589 -0.338760
C 4.281851 -1.155532 -0.357283
H 6.127013 -0.010995 -0.136268
H 4.860745 2.148712 0.304793
H 2.342742 2.097450 0.301698
H 2.243843 -1.976543 -0.510387
H 4.772602 -2.120689 -0.549911
C 0.011592 0.978951 1.568198
O -0.023189 1.392808 2.671915
C -0.063697 -1.868094 -0.590708
C -0.131699 -3.089876 -0.803379
H -0.186563 -4.150201 -1.010595
