33

Ir 0.247719 0.144536 0.212890
H 0.254061 0.052415 2.035647
H 0.195684 -0.810679 1.984650
P 2.557012 -0.041943 0.004030
C 3.118262 -0.524965 -1.679466
C 3.317251 -1.318444 1.088336
C 3.533029 1.480236 0.361396
H 2.633733 -1.490715 -1.921566
H 4.221586 -0.627526 -1.725102
H 2.777285 0.239074 -2.404249
H 2.808976 -2.277448 0.863982
H 3.135104 -1.053575 2.148072
H 4.407292 -1.406117 0.905530
H 3.191951 2.293360 -0.308938
H 4.619259 1.309806 0.217582
H 3.340952 1.793960 1.405924
As -2.192044 -0.007762 0.011426
C -3.246953 1.613718 0.343356
C -3.045503 -1.330982 1.171960
C -2.818510 -0.552553 -1.758995
H -3.087386 1.933484 1.390875
H -4.325038 1.433455 0.164922
H -2.881119 2.414469 -0.327863
H -2.878437 -1.045237 2.228056
H -2.546241 -2.297915 0.968518
H -4.130940 -1.399822 0.963508
H -2.477318 0.194317 -2.500466
H -3.922557 -0.638322 -1.778868
H -2.348683 -1.529669 -1.978984
C 0.260103 1.911396 -0.318604
O 0.263665 3.026803 -0.697985
S 0.182562 -2.317300 -0.439585
H 0.183392 -2.139343 -1.791909
