40

Ir -0.025470 0.077956 -0.248720
H -0.134025 0.056681 -2.027795
H -0.154334 -0.833652 -1.915382
P -2.363708 -0.017994 0.051312
C -2.904016 0.538680 1.736762
C -3.176403 -1.670948 -0.141372
C -2.977250 -2.337587 -1.501933
C -3.363698 1.058401 -1.090275
C -2.934442 2.523593 -1.173413
C -2.197207 -0.169520 2.893840
H -2.700806 1.630090 1.771398
H -4.007784 0.411199 1.786928
H -2.722279 -2.304159 0.648571
H -4.252815 -1.519920 0.094113
H -3.288041 0.578823 -2.089191
H -4.424954 0.962207 -0.770809
H -1.902562 -2.539787 -1.680241
H -3.507925 -3.310705 -1.531390
H -3.362974 -1.724859 -2.342298
H -2.972201 3.031177 -0.188507
H -1.897400 2.614212 -1.551722
H -3.600545 3.083050 -1.861050
H -2.378597 -1.262855 2.885918
H -1.101440 -0.014141 2.831271
H -2.552151 0.227294 3.866433
P 2.287552 0.025672 -0.144684
C 5.417331 0.006744 0.038672
C 4.733060 -1.222922 0.018609
C 3.340785 -1.350071 -0.057148
C 3.364939 1.388287 -0.111186
C 4.755891 1.246700 -0.019554
H 6.515906 -0.001886 0.105486
H 5.329223 -2.149989 0.070252
H 2.843739 -2.333371 -0.040309
H 2.914948 2.392917 -0.153441
H 5.367159 2.164705 0.006416
C -0.037928 1.824976 0.391434
O -0.052029 2.914651 0.832016
S 0.070641 -2.345148 0.514621
H 0.252960 -2.087683 1.840715
