32

Ir -0.081291 -0.560465 0.252087
H -0.054236 -0.482474 2.131578
H -0.127203 0.352789 2.068422
C -2.131414 -0.547325 0.059397
C -4.180872 -0.359867 -0.898775
C -4.370646 -0.521618 0.447893
H -4.901004 -0.229414 -1.711676
H -5.287236 -0.561066 1.043512
C -2.868132 -0.822426 2.437719
H -2.091827 -1.595699 2.589216
H -2.523497 0.125643 2.896678
H -3.806127 -1.144246 2.925730
C -2.179306 -0.208066 -2.418800
H -1.537178 0.696155 -2.388559
H -1.549895 -1.084541 -2.661552
H -2.968485 -0.091165 -3.183819
N -2.813181 -0.389224 -1.118294
N -3.109594 -0.647621 1.014631
P 2.230620 -0.361994 0.154403
C 5.352533 -0.128691 -0.070346
C 4.747582 -1.361687 -0.372338
C 3.367651 -1.593755 -0.300950
C 3.223637 1.027777 0.464893
C 4.616808 1.002626 0.328869
H 6.446723 -0.043817 -0.153156
H 5.396328 -2.198291 -0.682361
H 2.963546 -2.587645 -0.550849
H 2.700439 1.953993 0.751483
H 5.169281 1.933208 0.542965
C -0.009894 -2.206055 -0.551803
O 0.031609 -3.244619 -1.101264
I -0.325107 2.284372 -0.199305
