29

Ir 0.166921 0.108545 -0.213185
H 0.135722 0.281093 -1.891007
H 0.092723 -0.710813 -1.852882
N -1.961415 -0.020600 -0.086466
C -2.830296 0.963943 -0.413169
C -4.211812 0.761667 -0.289832
N -4.740993 -0.390929 0.148224
C -3.860785 -1.354269 0.471516
C -2.473529 -1.193499 0.363197
H -2.400029 1.910849 -0.771049
H -4.909181 1.573665 -0.560395
H -4.269751 -2.311517 0.838451
H -1.709878 -1.955563 0.620526
P 2.411941 -0.250838 0.001126
C 3.586212 1.093740 -0.425447
C 2.931282 -1.717635 -0.966647
C 2.772728 -0.716013 1.736081
H 3.463397 1.356866 -1.494066
H 4.634736 0.787925 -0.235065
H 3.342403 1.987464 0.181857
H 2.820091 -1.509778 -2.048210
H 2.215936 -2.511732 -0.672645
H 3.974162 -2.015762 -0.738266
H 2.592985 0.154603 2.395168
H 3.809360 -1.088046 1.860966
H 2.030474 -1.507278 1.965283
C 0.281309 1.801829 0.527873
O 0.379539 2.908080 0.919597
F 0.206081 -1.917763 0.554353
