32

Ir 0.161226 -0.083418 -0.174245
H 0.041690 -0.410604 -1.899630
H 0.041551 0.545484 -1.888864
P 2.439345 0.007346 -0.132328
C 3.135569 0.427302 1.513148
C 3.156996 1.261130 -1.265738
C 3.299253 -1.554539 -0.590057
H 2.682969 1.387668 1.827524
H 4.241019 0.505539 1.478655
H 2.833138 -0.356563 2.234165
H 2.725572 2.242955 -0.990271
H 2.857116 1.021395 -2.304375
H 4.262690 1.284079 -1.188982
H 2.981300 -2.354567 0.106719
H 4.401105 -1.437019 -0.546527
H 2.993620 -1.846587 -1.613386
N -2.022389 0.006481 -0.099431
C -4.830954 0.092497 -0.056799
C -4.069453 1.206696 0.322749
C -2.672455 1.129245 0.291679
C -2.756009 -1.072782 -0.465478
C -4.154575 -1.069075 -0.457056
H -5.930915 0.126947 -0.039621
H -4.545858 2.142980 0.647896
H -2.021055 1.971198 0.578444
H -2.179907 -1.958082 -0.772036
H -4.697769 -1.974877 -0.762751
C 0.189423 -1.676697 0.830772
O 0.242409 -2.631699 1.517433
C 0.294031 1.902726 0.405833
C 0.413723 3.075801 0.795767
H 0.493317 4.097448 1.142486
