54

Ir 1.120895 0.103333 -0.307223
H 1.103562 -0.338627 -2.088775
H 1.205319 -1.149517 -1.823362
P -1.152096 0.011744 -0.128385
C -1.619787 2.474146 -1.387521
C -2.000240 1.648888 -0.307501
C -1.789774 -0.623073 1.482519
C -1.012006 -0.432861 2.642225
C -1.500558 -0.847029 3.889710
C -2.758514 -1.464734 3.986441
C -3.529522 -1.668950 2.830622
C -3.048516 -1.250040 1.579899
C -2.004181 -1.051371 -1.380155
C -1.555159 -2.381307 -1.538025
C -2.183269 -3.225263 -2.464986
C -3.255057 -2.755413 -3.243214
C -3.702971 -1.434741 -3.087182
C -3.083318 -0.583145 -2.157275
C -2.980212 2.103153 0.596397
C -3.572985 3.365204 0.419250
C -3.198833 4.176583 -0.662710
C -2.222032 3.726363 -1.567979
H -0.826727 2.132352 -2.071251
H -0.013299 0.020885 2.545853
H -0.885445 -0.702256 4.791111
H -3.135287 -1.798750 4.965656
H -4.510901 -2.163106 2.900230
H -3.652589 -1.417409 0.674790
H -0.713655 -2.750100 -0.925025
H -1.828378 -4.261161 -2.579880
H -3.742316 -3.420735 -3.972860
H -4.542947 -1.059520 -3.692154
H -3.443751 0.449506 -2.039040
H -3.279231 1.472848 1.446898
H -4.333431 3.713800 1.135136
H -3.664713 5.164836 -0.799192
H -1.917156 4.361694 -2.413742
N 3.257908 0.184017 -0.394265
C 5.479560 0.906205 -0.794422
O 5.415125 -0.356129 -0.061242
C 4.119404 -0.636044 0.111731
C 3.999702 1.266228 -1.066734
H 3.736225 1.274709 -2.144118
H 3.690499 2.243165 -0.643866
H 6.079036 0.734769 -1.710139
H 6.007769 1.639974 -0.152681
H 3.835531 -1.552351 0.658678
C 1.081279 1.848453 0.296465
N 1.052172 3.023160 0.631504
C 0.867721 3.756549 1.850667
H -0.137503 4.230155 1.849334
H 1.613230 4.574815 1.928804
H 0.948658 3.113394 2.755512
Br 1.334403 -2.392977 0.732741
