34

Ir 0.054789 0.126349 -0.226327
H 0.197216 -0.092832 -1.916870
H 0.179569 -1.032038 -1.595811
C -1.962345 0.197873 -0.198033
C -4.105464 0.545237 0.490139
C -4.157815 -0.165803 -0.676305
H -4.903130 0.912188 1.142130
H -5.010294 -0.553681 -1.241068
C -2.479515 -1.227553 -2.195249
H -1.849413 -0.682669 -2.923470
H -1.923692 -2.099018 -1.796633
H -3.401776 -1.570909 -2.697862
C -2.300164 1.409128 1.989241
H -1.430957 0.858105 2.391422
H -1.994054 2.455551 1.795672
H -3.121516 1.398073 2.729350
N -2.763447 0.755460 0.771590
N -2.848047 -0.364497 -1.084770
N 2.236409 -0.009005 -0.166529
C 5.038541 -0.126958 -0.090043
C 4.381503 0.706972 -1.007141
C 2.983588 0.739454 -1.013602
C 2.863939 -0.812138 0.724295
C 4.260880 -0.896066 0.785984
H 6.138008 -0.172947 -0.059151
H 4.939677 1.335394 -1.715978
H 2.421100 1.382047 -1.707024
H 2.186013 -1.400453 1.376481
H 4.723223 -1.565260 1.526119
C 0.202434 1.910078 0.294341
O 0.359902 3.035465 0.604550
N -0.296643 -1.794437 0.906125
O 0.503160 -2.228758 1.757003
O -1.365579 -2.393512 0.702591
