32

Ir 0.485954 -0.063356 -0.207202
H 0.607717 -0.324758 -1.906404
H 0.587306 0.689534 -1.815612
N 2.744022 0.066603 -0.102015
C 3.144440 0.194891 1.325270
C 3.368015 -1.145492 -0.687150
C 3.221178 1.263494 -0.844108
H 3.046285 -2.042493 -0.128006
H 4.477717 -1.064773 -0.643071
H 3.048522 -1.256027 -1.739391
H 2.722145 2.161205 -0.435555
H 2.958553 1.162876 -1.913073
H 4.325917 1.354434 -0.743882
H 2.814139 -0.699603 1.883418
H 2.649642 1.085046 1.754860
H 4.251126 0.293378 1.401905
P -1.754251 -0.011914 -0.107998
C -4.875393 0.066602 -0.006962
C -4.168424 1.283269 -0.008145
C -2.772405 1.387954 -0.047232
C -2.845704 -1.357985 -0.100340
C -4.235653 -1.185135 -0.047377
H -5.974746 0.095556 0.030003
H -4.747895 2.221270 0.029843
H -2.266069 2.364757 -0.022740
H -2.411210 -2.369223 -0.132734
H -4.863740 -2.091934 -0.039940
C 0.517151 -1.759481 0.645468
O 0.545653 -2.793044 1.201379
C 0.453564 1.843851 0.593387
C 0.463237 2.974973 1.100293
H 0.476520 3.954385 1.559335
