34

Ir -0.079936 -0.110546 0.294257
H -0.129099 -0.404904 1.943374
H -0.132363 -1.361622 1.631195
As 2.270015 -0.314755 -0.002985
C 2.656831 -0.378048 -1.913621
C 2.933286 -2.043895 0.609958
C 3.519099 1.002766 0.725969
H 1.911788 -1.100558 -2.301338
H 3.693516 -0.709768 -2.116930
H 2.471622 0.619636 -2.353729
H 2.254356 -2.779560 0.136881
H 2.834506 -2.106263 1.710100
H 3.983732 -2.214185 0.303659
H 3.212732 2.005003 0.370142
H 4.556814 0.785408 0.406106
H 3.452606 0.985349 1.830481
N -2.192415 -0.236397 0.112278
C -4.950609 -0.582092 -0.217877
C -4.037461 -1.464826 -0.816853
C -2.665976 -1.266983 -0.634111
C -3.063891 0.625195 0.688133
C -4.448438 0.481877 0.545941
H -6.035140 -0.719949 -0.345452
H -4.379626 -2.311950 -1.429205
H -1.866421 -1.903881 -1.065405
H -2.614663 1.445427 1.267191
H -5.118439 1.204629 1.033873
C -0.074133 1.733339 0.035913
N -0.099243 2.960436 0.027926
C -0.064032 3.959215 -1.003987
H -0.976359 4.591454 -0.958910
H 0.008679 3.524356 -2.026835
H 0.800160 4.640468 -0.850468
F 0.058857 -1.861960 -0.982468
