41

Ir 0.272896 0.125997 -0.224567
H 0.234453 -0.063228 -2.021654
H 0.213221 -0.924539 -1.904706
P -2.066914 -0.049086 0.020187
C -2.651959 0.505239 1.691912
C -2.774051 -1.756328 -0.129823
C -2.438399 -2.488516 -1.429752
C -3.117096 0.940535 -1.152271
C -2.715286 2.409599 -1.293720
C -1.871652 -0.108915 2.856484
H -2.546683 1.611195 1.696988
H -3.739630 0.281611 1.756684
H -2.351894 -2.318635 0.728135
H -3.871196 -1.656301 0.023771
H -3.039246 0.422434 -2.131862
H -4.172869 0.834379 -0.818115
H -1.350941 -2.696424 -1.470187
H -2.969413 -3.461391 -1.468556
H -2.730400 -1.916420 -2.334638
H -2.763285 2.952526 -0.328006
H -1.676814 2.501666 -1.669013
H -3.388405 2.932558 -2.003071
H -1.936723 -1.215051 2.866241
H -0.796469 0.148725 2.779825
H -2.258684 0.266657 3.825360
P 2.614362 0.047549 -0.108684
C 3.191327 -0.308037 1.597115
C 3.532382 1.567432 -0.596079
C 3.360448 -1.289937 -1.123532
H 2.879935 0.522398 2.259737
H 4.291550 -0.438146 1.639973
H 2.671131 -1.233391 1.915514
H 3.180682 2.414331 0.025382
H 3.308303 1.801714 -1.654959
H 4.626389 1.440481 -0.466729
H 2.847915 -2.227582 -0.829136
H 4.452930 -1.369651 -0.953144
H 3.160351 -1.091088 -2.194453
C 0.244197 1.855858 0.378134
O 0.231389 2.964938 0.778431
Cl 0.475910 -2.286977 0.607733
