28

Ir -0.040525 0.056707 -0.171657
H -0.063585 0.103886 -1.894654
H -0.033185 -0.893338 -1.696476
N -2.116779 -0.006443 -0.161639
C -4.278659 0.571503 -0.371889
C -2.980343 1.030674 -0.468077
N -4.177312 -0.757036 -0.002853
C -2.862209 -1.078989 0.119705
H -4.953100 -1.399282 0.157584
H -5.240110 1.067715 -0.532265
H -2.598563 2.022725 -0.726629
H -2.449095 -2.049751 0.421985
N 2.017343 0.065838 -0.186311
C 4.256948 -0.691518 -0.201578
O 4.155605 0.755860 -0.017606
C 2.847308 1.036133 0.027967
C 2.813129 -1.143834 -0.490776
H 2.450579 -1.977674 0.142220
H 2.634371 -1.422522 -1.550563
H 4.668784 -1.116290 0.737590
H 4.970828 -0.880012 -1.026221
H 2.552388 2.072476 0.246287
C -0.070825 1.713982 0.716967
N -0.067035 2.817687 1.281585
H -0.078764 2.852502 2.313117
C -0.000384 -1.822066 0.735186
C 0.007412 -2.913221 1.329291
H 0.027256 -3.850062 1.870258
