27

Ir 0.095693 0.033481 -0.119008
H 0.078780 0.371405 -1.840993
H 0.079119 -0.606243 -1.811055
N -1.980914 0.011677 -0.115967
C -2.698167 -1.131678 0.054081
C -4.097713 -1.113135 -0.013362
N -4.811426 0.001474 -0.233561
C -4.092786 1.124143 -0.388753
C -2.694360 1.148109 -0.338322
H -2.122537 -2.048001 0.251618
H -4.652956 -2.056912 0.123235
H -4.643256 2.063891 -0.567562
H -2.117602 2.071970 -0.481816
N 2.169411 -0.020781 -0.162092
C 4.441821 0.577847 -0.457828
O 4.268483 -0.798508 0.004237
C 2.960372 -1.007083 0.130256
C 3.002571 1.130590 -0.563738
H 2.721193 1.449317 -1.587326
H 2.801718 1.981915 0.117862
H 4.981256 0.540132 -1.424737
H 5.071899 1.103659 0.286050
H 2.612936 -1.994893 0.473384
C 0.142973 1.584379 0.963721
O 0.183730 2.512714 1.682582
C 0.159038 -1.938822 0.513311
N 0.260201 -3.051522 0.902222
