31

Ir -0.319922 -0.196374 -0.195910
H -0.390405 -0.493897 -1.870306
H -0.355753 0.476723 -1.903038
As 2.063085 -0.293012 -0.139385
C 2.852669 0.225824 1.572493
C 2.981751 0.910848 -1.376417
C 2.863510 -2.040610 -0.496827
H 2.630021 1.297953 1.738480
H 3.948877 0.068267 1.555697
H 2.390724 -0.378333 2.375304
H 2.771206 1.949681 -1.055080
H 2.588830 0.751566 -2.398103
H 4.073424 0.725732 -1.353525
H 2.415872 -2.771874 0.202948
H 3.963383 -2.007218 -0.372395
H 2.605853 -2.340825 -1.530235
N -2.438458 0.021969 -0.124333
C -4.653527 -0.345799 -0.135324
C -3.414609 -0.947597 -0.243878
N -4.396462 1.000362 0.052088
C -3.051053 1.192719 0.056605
H -5.093680 1.735606 0.170921
H -5.668480 -0.752005 -0.174636
H -3.154019 -2.000766 -0.388381
H -2.510187 2.138609 0.197635
C -0.389506 -1.724628 0.854005
N -0.447241 -2.830401 1.405026
H -0.448989 -2.900667 2.431569
N -0.245134 1.965352 0.289867
C 0.655804 2.740631 0.529188
O 1.550797 3.515296 0.767538
