39

Ir -0.210324 -0.188177 0.161207
H -0.287302 -1.019609 1.846906
H -0.189061 -0.250249 2.188935
P -2.552134 -0.043936 0.083635
C -3.114435 1.164889 -1.183469
C -3.364351 0.542314 1.628213
C -3.488690 -1.573035 -0.350911
H -2.624712 2.130815 -0.950137
H -4.217496 1.278134 -1.193252
H -2.759313 0.820416 -2.174337
H -2.886695 1.503816 1.902450
H -3.176828 -0.189345 2.438496
H -4.456531 0.677471 1.493313
H -3.101519 -1.952064 -1.317116
H -4.578258 -1.382631 -0.433229
H -3.302618 -2.344106 0.422018
C 1.844332 -0.040480 0.058419
C 4.130383 -0.235250 0.563290
C 3.961559 0.669830 -0.665187
H 4.445247 0.336208 1.468176
H 4.332318 0.190569 -1.602173
C 1.930144 1.690945 -1.744764
H 2.164466 1.303620 -2.761926
H 0.834953 1.712314 -1.599674
H 2.327532 2.723109 -1.651539
C 2.505841 -1.751100 1.757452
H 2.468560 -1.309747 2.780098
H 1.532135 -2.230064 1.542489
H 3.300421 -2.525741 1.741237
N 2.775479 -0.764084 0.740632
N 2.508992 0.841288 -0.728149
H 4.475807 1.647724 -0.562228
H 4.864096 -1.053676 0.409219
C -0.211557 -1.231611 -1.385330
N -0.236935 -1.629146 -2.558881
H -0.223405 -2.642553 -2.742088
C -0.314596 1.814712 0.701636
C -0.428314 3.031517 0.918948
H -0.499517 4.091430 1.121882
