51

Ir 1.237338 -0.092003 0.179790
H 1.259141 -0.145516 1.988193
H 1.320960 0.735372 1.931728
P -1.040685 -0.005975 0.050636
C -1.388655 -2.677987 0.861751
C -1.889087 -1.651336 0.033853
C -1.689864 0.804596 -1.476182
C -1.061505 0.499159 -2.702245
C -1.543986 1.052387 -3.896425
C -2.649985 1.919961 -3.877015
C -3.275345 2.226969 -2.658782
C -2.801460 1.669114 -1.459555
C -1.886298 0.876090 1.440551
C -1.501664 2.203166 1.735363
C -2.127621 2.895966 2.781600
C -3.130263 2.276250 3.546758
C -3.511368 0.957139 3.257209
C -2.896082 0.257194 2.206206
C -3.039711 -1.889548 -0.744910
C -3.678294 -3.139042 -0.695253
C -3.179665 -4.155383 0.134911
C -2.034826 -3.921509 0.914645
H -0.477840 -2.494899 1.453409
H -0.182556 -0.165207 -2.706050
H -1.047504 0.810825 -4.848847
H -3.021669 2.361301 -4.814624
H -4.138910 2.909531 -2.637329
H -3.294108 1.914804 -0.506852
H -0.708584 2.678768 1.128899
H -1.824176 3.931256 3.002018
H -3.615165 2.822487 4.370805
H -4.295841 0.463851 3.851753
H -3.206219 -0.774569 1.985189
H -3.436843 -1.097541 -1.397320
H -4.571224 -3.318657 -1.313677
H -3.680928 -5.135000 0.169846
H -1.635014 -4.716683 1.562490
N 3.393716 -0.043873 0.205750
C 5.675799 -0.623975 0.471528
O 5.489450 0.701336 -0.116546
C 4.171732 0.900384 -0.208594
C 4.236811 -1.155625 0.678594
H 3.994908 -1.380379 1.737158
H 4.010682 -2.066333 0.087095
H 6.247244 -0.496623 1.412606
H 6.280119 -1.225000 -0.236466
H 3.785183 1.855797 -0.610271
C 1.293631 -1.711227 -0.711193
O 1.373286 -2.713599 -1.325852
S 1.280751 2.385124 -0.389201
H 0.869889 2.273030 -1.683855
