34

Ir -0.000002 0.015655 -0.246277
H -0.000006 -0.066682 -1.938353
H 0.000000 -1.040378 -1.723715
N -2.080106 0.008007 -0.207622
C -4.889836 -0.001609 -0.140799
C -4.194990 0.837049 -1.024205
C -2.797268 0.818771 -1.027689
C -2.748382 -0.799377 0.657279
C -4.144768 -0.828706 0.712400
H -5.989996 -0.007485 -0.115632
H -4.723909 1.511258 -1.713068
H -2.205934 1.465092 -1.691093
H -2.101013 -1.431082 1.286413
H -4.634724 -1.503168 1.429395
N 2.080101 0.008026 -0.207626
C 4.889831 -0.001566 -0.140796
C 4.144768 -0.828625 0.712444
C 2.748381 -0.799309 0.657319
C 2.797259 0.818752 -1.027733
C 4.194980 0.837040 -1.024248
H 5.989991 -0.007433 -0.115626
H 4.634727 -1.503047 1.429475
H 2.101016 -1.430989 1.286482
H 2.205923 1.465035 -1.691172
H 4.723896 1.511216 -1.713145
C -0.000012 1.780591 0.395625
N -0.000023 2.975220 0.661978
C -0.000027 3.753664 1.869661
H -0.890718 4.416350 1.895265
H 0.890647 4.416372 1.895258
H -0.000016 3.126165 2.788909
N 0.000011 -1.920412 0.793647
C 0.000039 -3.115684 0.563952
O 0.000066 -4.306058 0.409001
