40

Ir 0.146016 0.071867 -0.304839
H 0.199679 0.093475 -2.015750
H 0.131892 -0.846527 -1.925733
As -2.299492 -0.163824 -0.165899
C -2.952146 -0.462104 1.653968
C -3.028635 -1.697272 -1.136730
C -3.442270 1.316405 -0.761077
H -2.489100 -1.382294 2.060490
H -4.055696 -0.557216 1.661286
H -2.640114 0.400100 2.273509
H -2.440403 -2.582745 -0.829454
H -2.889335 -1.531589 -2.222194
H -4.101839 -1.846388 -0.908902
H -3.170453 2.217572 -0.178615
H -4.513483 1.079831 -0.609059
H -3.247907 1.513291 -1.832768
C 2.192200 -0.003934 -0.155321
C 4.322754 -0.798383 -0.366725
C 4.377313 0.311068 0.430206
H 5.111089 -1.477534 -0.704028
H 5.222694 0.796024 0.926772
C 2.729792 1.928275 1.375560
H 2.485779 2.808261 0.749891
H 1.846373 1.692007 1.995309
H 3.589962 2.169370 2.027107
C 2.525571 -2.096380 -1.525580
H 1.649158 -2.556922 -1.025921
H 2.236919 -1.748479 -2.537828
H 3.345412 -2.832753 -1.614102
N 2.992317 -0.980524 -0.710832
N 3.076631 0.779279 0.554539
C -0.076280 1.813699 0.315055
N -0.351887 2.943071 0.707910
C -0.580824 4.210013 0.069123
H 0.186172 4.948523 0.388311
H -1.564752 4.625070 0.375489
H -0.559738 4.142162 -1.042198
N 0.123523 -1.996064 0.456217
C -0.268487 -2.602819 1.429594
O -0.671290 -3.247819 2.364050
