31

Ir -0.004705 -0.198317 -0.245603
H 0.007662 -0.701662 -1.904078
H -0.032409 -1.572534 -1.403488
N -2.065449 -0.167790 -0.266597
C -4.331876 -0.777090 0.042941
O -4.179864 0.571136 -0.506319
C -2.865559 0.798365 -0.587671
C -2.898018 -1.343090 0.077126
H -2.711143 -2.138416 -0.673854
H -2.582775 -1.740701 1.061017
H -5.027519 -1.333390 -0.614193
H -4.788904 -0.674831 1.048586
H -2.538562 1.794391 -0.918441
N 2.060388 -0.274055 -0.196122
C 4.349744 0.179230 -0.600588
O 4.145624 -0.914004 0.347144
C 2.826625 -1.056548 0.496835
C 2.921875 0.611829 -1.003730
H 2.694245 0.459197 -2.077918
H 2.684816 1.667195 -0.761613
H 4.956196 -0.212687 -1.440820
H 4.926813 0.969798 -0.080399
H 2.453369 -1.820937 1.197052
C 0.038935 1.665943 0.088428
N 0.041293 2.870643 0.326488
C 0.037224 3.630662 1.552269
H -0.850268 4.297342 1.582530
H 0.929561 4.290308 1.592847
H 0.029146 2.985748 2.459372
C -0.038116 -1.682539 1.201302
N -0.001805 -2.488228 2.067195
