36

Ir -0.000003 -0.155759 -0.319489
H -0.000007 -0.584149 -1.948344
H -0.000009 -1.499141 -1.574928
P -2.291880 -0.346625 0.046883
C -2.570890 -0.295031 1.861067
C -2.905851 -2.015655 -0.412635
C -3.485743 0.847960 -0.681050
H -1.809718 -0.993667 2.266411
H -3.596224 -0.607846 2.144454
H -2.360948 0.725247 2.235076
H -2.199079 -2.718160 0.073470
H -2.844038 -2.146967 -1.510213
H -3.942314 -2.197063 -0.062741
H -3.174195 1.872774 -0.398705
H -4.521815 0.660536 -0.332726
H -3.444664 0.770906 -1.785134
P 2.291874 -0.346645 0.046880
C 2.905814 -2.015695 -0.412601
C 2.570889 -0.295016 1.861062
C 3.485751 0.847908 -0.681083
H 2.199021 -2.718173 0.073514
H 3.942270 -2.197118 -0.062697
H 2.844005 -2.147029 -1.510177
H 1.809714 -0.993639 2.266421
H 2.360955 0.725271 2.235052
H 3.596222 -0.607833 2.144453
H 3.444665 0.770832 -1.785165
H 4.521821 0.660476 -0.332759
H 3.174219 1.872732 -0.398757
C 0.000011 1.706643 -0.229493
N 0.000024 2.929107 -0.316224
C 0.000041 4.019257 0.616419
H -0.890046 4.664890 0.456891
H 0.890150 4.664861 0.456892
H 0.000035 3.681339 1.678174
F 0.000000 -1.841398 1.061021
