43

Ir -0.144666 -0.190329 -0.272381
H -0.140524 -0.507227 -1.931546
H -0.183989 -1.447512 -1.610972
N -2.290724 -0.225369 -0.143639
C -3.102089 0.601475 -0.844022
C -4.494046 0.522827 -0.701179
N -5.093784 -0.353614 0.119956
C -4.269534 -1.162472 0.809922
C -2.874497 -1.115646 0.695580
H -2.613621 1.327108 -1.511288
H -5.141887 1.203312 -1.281335
H -4.735245 -1.889830 1.497684
H -2.143764 -1.758823 1.234516
P 2.111413 -0.277583 0.054051
C 3.107797 1.226397 -0.382334
C 3.019726 -1.623844 -0.852861
C 2.468802 -3.038197 -0.669914
C 2.498697 -0.609417 1.834540
C 2.132200 0.535282 2.780702
C 2.958612 1.690287 -1.832745
H 2.761357 2.021721 0.309731
H 4.167698 1.009890 -0.123931
H 2.992764 -1.335209 -1.925133
H 4.082228 -1.561030 -0.529401
H 1.857760 -1.493275 2.046260
H 3.569765 -0.894725 1.918386
H 1.433681 -3.109292 -1.060926
H 3.089632 -3.771468 -1.224202
H 2.450118 -3.343348 0.394917
H 2.759938 1.437042 2.623486
H 1.070927 0.826165 2.640101
H 2.262630 0.221976 3.836418
H 3.304561 0.922787 -2.554831
H 1.899793 1.922610 -2.061909
H 3.557767 2.605994 -2.013292
C -0.131922 1.673810 -0.111688
N -0.129649 2.899748 -0.104683
C -0.070541 3.908091 0.916921
H -0.965572 4.563376 0.864087
H 0.812979 4.562374 0.756920
H -0.009166 3.478423 1.942423
O -0.178908 -1.918453 1.056964
H -0.100638 -2.721254 0.511753
