33

Ir -0.000014 -0.331447 0.231156
H -0.000002 -0.149769 2.113139
H 0.000075 0.683982 2.086331
As -2.416910 -0.187878 0.031676
C -2.993086 0.432026 -1.730031
C -3.279271 1.093860 1.231525
C -3.469211 -1.821126 0.289072
H -2.455686 1.380289 -1.924416
H -4.089614 0.585144 -1.760834
H -2.689050 -0.317605 -2.484762
H -2.770176 2.065220 1.078941
H -3.129811 0.763960 2.277326
H -4.360974 1.178959 1.010131
H -3.055482 -2.611469 -0.365781
H -4.537413 -1.647899 0.053985
H -3.362273 -2.149141 1.340603
As 2.416887 -0.187880 0.031670
C 3.469134 -1.821245 0.288537
C 3.279268 1.093416 1.231978
C 2.993132 0.432600 -1.729810
H 3.362438 -2.149421 1.340043
H 4.537289 -1.648051 0.053212
H 3.055181 -2.611459 -0.366328
H 3.129238 0.763483 2.277686
H 2.770612 2.064991 1.079290
H 4.361095 1.178118 1.011044
H 2.689242 -0.316851 -2.484781
H 4.089646 0.585838 -1.760475
H 2.455639 1.380857 -1.923966
C 0.000020 -2.049259 -0.397002
N 0.000107 -3.228637 -0.761126
H 0.000118 -3.500049 -1.751105
Br 0.000032 2.309462 -0.301899
