38

Ir -0.357560 -0.211105 0.009606
H -0.519742 -1.928082 0.545492
H -0.469317 -1.537888 1.359711
N -2.648312 -0.149927 0.057171
C -3.069608 1.234834 -0.272761
C -3.219620 -1.092625 -0.931293
C -3.155036 -0.494835 1.407754
H -2.865694 -0.832037 -1.945345
H -4.334041 -1.056539 -0.909034
H -2.881427 -2.119918 -0.701523
H -2.695817 0.186378 2.147972
H -2.869933 -1.534454 1.654578
H -4.265362 -0.405894 1.439237
H -2.713953 1.497381 -1.285885
H -2.608932 1.928295 0.455013
H -4.180597 1.321726 -0.237124
C 1.636489 -0.110243 0.026851
C 3.897045 -0.620967 0.379268
C 3.789234 0.776709 -0.239381
H 4.178190 -0.580297 1.458609
H 4.130810 0.794827 -1.302122
C 1.821033 2.318299 -0.564644
H 1.760879 2.409061 -1.672633
H 0.811422 2.440059 -0.130726
H 2.482097 3.118588 -0.174760
C 2.217217 -2.485437 0.590457
H 2.039871 -2.605388 1.683672
H 1.308840 -2.811866 0.049887
H 3.061242 -3.141538 0.297197
N 2.530959 -1.124863 0.225677
N 2.351512 1.032544 -0.161943
H 4.363737 1.546174 0.315343
H 4.626730 -1.275981 -0.139201
C -0.333346 0.100859 -1.832196
O -0.300505 0.449444 -2.960355
C -0.393797 1.105861 1.600149
C -0.450561 1.971965 2.488501
H -0.496241 2.716125 3.272235
