28

Ir 0.095427 0.014284 -0.154813
H 0.080054 0.265457 -1.862434
H 0.083150 -0.749177 -1.767473
N -1.975529 0.012938 -0.133851
C -2.703937 -1.108973 0.113240
C -4.103998 -1.073294 0.078768
N -4.807919 0.038991 -0.183489
C -4.077852 1.140571 -0.415539
C -2.678267 1.146478 -0.398628
H -2.135223 -2.022189 0.343475
H -4.668819 -1.999935 0.278723
H -4.620233 2.077140 -0.632532
H -2.088747 2.050244 -0.602588
N 2.168107 -0.012759 -0.174535
C 4.438500 0.620996 -0.404322
O 4.274250 -0.760820 0.042935
C 2.965122 -0.988970 0.132048
C 2.994447 1.154941 -0.538475
H 2.733475 1.485652 -1.563586
H 2.761472 1.988872 0.153848
H 4.999978 0.598941 -1.359317
H 5.044612 1.149527 0.357455
H 2.623420 -1.983409 0.461457
C 0.131885 1.542549 0.964661
N 0.166508 2.411712 1.837680
H 0.146649 3.414110 1.604448
C 0.163317 -1.948892 0.510291
N 0.266406 -3.051020 0.927530
