25

Ir 0.000586 0.078125 -0.129094
H 0.002974 0.082226 -1.908703
H -0.003882 -0.821472 -1.790975
N -2.077841 0.080751 -0.153782
C -4.212773 0.761699 -0.357655
C -2.895503 1.171937 -0.397354
N -4.170461 -0.593339 -0.088500
C -2.872585 -0.979208 0.031977
H -4.973249 -1.215133 0.006850
H -5.149813 1.309010 -0.495253
H -2.474606 2.165220 -0.578623
H -2.478569 -1.982598 0.265730
N 2.079178 0.028349 -0.152805
C 4.214039 -0.671611 -0.107310
C 2.900103 -1.078397 0.002777
N 4.173866 0.692629 -0.328210
C 2.872127 1.086042 -0.353112
H 4.976094 1.310398 -0.450617
H 5.153418 -1.228897 -0.045914
H 2.441019 -2.058043 0.199720
H 2.529890 2.114345 -0.504861
C 0.028023 1.673969 0.799058
O 0.063937 2.684727 1.410861
S -0.048766 -2.391797 0.586325
H -0.033405 -2.145061 1.927584
