31

Ir 0.294308 0.048446 -0.157859
H 0.225772 0.095615 -1.917535
H 0.203569 -0.856431 -1.741686
N -1.765980 0.030570 -0.094659
C -2.446488 -1.145026 -0.205734
C -3.846498 -1.162613 -0.235715
N -4.602930 -0.058386 -0.142973
C -3.921088 1.091500 -0.013801
C -2.524083 1.156147 0.005643
H -1.836197 -2.058370 -0.243643
H -4.366999 -2.130741 -0.335803
H -4.503596 2.024871 0.073627
H -1.990259 2.111721 0.090732
N 2.486237 -0.062743 -0.231446
C 3.028752 -0.097561 1.158409
C 2.914434 -1.305340 -0.935894
C 3.057067 1.108600 -0.949432
H 2.471360 -2.177663 -0.422297
H 4.024479 -1.373434 -0.933674
H 2.551531 -1.278534 -1.979352
H 2.786736 2.039850 -0.420914
H 2.640880 1.152933 -1.971952
H 4.165182 1.019776 -0.999858
H 2.589190 -0.961816 1.688238
H 2.744357 0.828773 1.688402
H 4.137808 -0.183073 1.126292
C 0.408947 1.747489 0.646087
O 0.524016 2.763297 1.234041
C 0.329207 -1.792868 0.787934
C 0.352603 -2.875396 1.395529
H 0.363912 -3.805894 1.947620
