38

Ir -0.069901 -0.038778 0.257624
H -0.137631 0.132018 1.950676
H -0.081138 -0.818609 1.946858
As 2.367916 -0.194280 0.106233
C 2.812471 -0.837452 -1.682401
C 3.095875 -1.617591 1.228402
C 3.596520 1.315223 0.370927
H 2.138582 -1.706344 -1.812823
H 3.876458 -1.131215 -1.769671
H 2.561058 -0.053199 -2.421076
H 2.436216 -2.480277 1.010920
H 3.002154 -1.335453 2.294368
H 4.151117 -1.843854 0.980451
H 3.284225 2.138360 -0.300661
H 4.642104 1.025788 0.147235
H 3.521889 1.665182 1.418524
C -2.082340 -0.312806 0.089586
C -4.080910 -1.091678 -0.661069
C -4.339986 -0.248932 0.388110
H -4.756776 -1.670248 -1.297977
H -5.284070 0.046224 0.855716
C -2.924825 1.121999 1.954627
H -2.061416 1.781465 1.746803
H -3.840613 1.725837 2.099186
H -2.710784 0.553074 2.883344
C -1.998677 -1.850590 -1.877056
H -1.009649 -2.164643 -1.465142
H -2.600463 -2.733457 -2.164238
H -1.854664 -1.197471 -2.761916
N -2.705204 -1.118306 -0.828310
N -3.109760 0.224841 0.827135
C -0.151363 1.545915 -0.705231
N -0.183120 2.576925 -1.368330
C -0.323750 3.972384 -1.061353
H -1.204227 4.397515 -1.589276
H 0.563090 4.538348 -1.419293
H -0.442171 4.168200 0.029317
F 0.379592 -2.155903 -0.264975
