40

Ir 0.135694 0.039578 -0.122462
H 0.234671 0.071096 -1.974852
H 0.279234 -0.783695 -1.993739
P -2.148223 0.050986 -0.055850
C -2.850172 0.475224 1.610566
C -3.046068 -1.510554 -0.505929
C -2.739300 -2.062940 -1.897352
C -2.971665 1.291753 -1.175521
C -2.480583 2.734705 -1.059405
C -2.322079 -0.390128 2.755886
H -2.587778 1.540443 1.782809
H -3.957854 0.420900 1.527801
H -2.739806 -2.252277 0.259715
H -4.129675 -1.293586 -0.377596
H -2.806290 0.911943 -2.206098
H -4.064489 1.216765 -0.980872
H -1.672562 -2.353729 -1.965647
H -3.346756 -2.970404 -2.090953
H -2.961654 -1.337361 -2.706504
H -2.605941 3.142101 -0.035948
H -1.404669 2.807641 -1.311707
H -3.044166 3.393047 -1.751461
H -2.577630 -1.460434 2.620392
H -1.217813 -0.312909 2.818543
H -2.751342 -0.061358 3.724051
N 2.343318 0.016053 -0.106652
C 5.152972 0.071873 -0.129623
C 4.457356 -1.053453 0.333827
C 3.057418 -1.047459 0.329135
C 3.013074 1.107255 -0.551530
C 4.410004 1.172125 -0.582100
H 6.253588 0.093346 -0.137905
H 4.988021 -1.944088 0.701358
H 2.440864 -1.911889 0.646315
H 2.388764 1.947587 -0.889107
H 4.899773 2.082594 -0.956499
C 0.147358 1.692401 0.688154
O 0.155516 2.707882 1.289803
S 0.105419 -2.441453 0.338773
H -0.145541 -2.355050 1.676361
