41

Ir -0.198827 -0.092332 -0.252198
H -0.258188 -0.878651 -1.932813
H -0.114215 -1.652196 -1.613080
P -2.534012 -0.276064 -0.108811
C -3.172833 -0.252694 1.620132
C -3.247117 -1.835951 -0.780974
C -3.531129 1.041306 -0.934288
H -2.681242 -1.087367 2.157043
H -4.275040 -0.370106 1.657214
H -2.877815 0.701679 2.097980
H -2.719236 -2.668064 -0.272338
H -3.041617 -1.892488 -1.867950
H -4.339664 -1.899952 -0.603162
H -3.201691 2.028662 -0.555593
H -4.618330 0.912880 -0.757146
H -3.325970 1.013541 -2.022374
C 1.854465 -0.063818 -0.099066
C 4.146941 -0.213541 -0.617592
C 3.964560 -0.273015 0.906596
H 4.726730 -1.070824 -1.019269
H 4.607116 0.447974 1.454324
C 1.972508 0.133125 2.386916
H 2.542325 0.865468 2.998291
H 0.920964 0.463473 2.282872
H 1.982419 -0.856855 2.893725
C 2.493098 -0.176768 -2.514846
H 2.604476 -1.171628 -3.000004
H 1.460933 0.187635 -2.668923
H 3.197579 0.530295 -3.005425
N 2.762500 -0.232575 -1.097622
N 2.545972 0.050004 1.064592
H 4.169066 -1.289638 1.316334
H 4.654085 0.721799 -0.953210
C -0.281044 1.758347 -0.228047
N -0.341627 2.982371 -0.190382
C -0.377980 3.964176 0.856190
H 0.485610 4.657820 0.767558
H -0.356992 3.510688 1.873888
H -1.294341 4.587157 0.772133
S -0.144666 -2.301765 1.046382
H -0.309152 -1.798179 2.302990
