31

Ir 0.169445 0.029989 -0.163767
H 0.118173 0.032055 -1.846179
H 0.078658 -0.967476 -1.674622
N -1.973612 -0.030524 -0.056681
C -2.784086 1.029953 -0.277543
C -4.177105 0.881456 -0.227601
N -4.775545 -0.291081 0.035503
C -3.952112 -1.329430 0.261146
C -2.555570 -1.223559 0.219619
H -2.296326 1.992983 -0.490551
H -4.826442 1.754974 -0.412970
H -4.418037 -2.304993 0.484851
H -1.825803 -2.038730 0.421310
P 2.427123 -0.210898 -0.045680
C 3.454076 1.055908 -0.892756
C 2.961795 -1.833896 -0.708215
C 3.060060 -0.219245 1.681383
H 3.205176 1.051262 -1.971699
H 4.537546 0.862656 -0.757757
H 3.191775 2.052093 -0.485520
H 2.765545 -1.865267 -1.797365
H 2.299461 -2.569778 -0.206257
H 4.032378 -2.037091 -0.505845
H 2.825078 0.751721 2.157764
H 4.152187 -0.407812 1.718287
H 2.521280 -1.021678 2.221147
C 0.256339 1.797742 0.424628
N 0.306040 3.013102 0.653057
H 0.338277 3.368528 1.617933
O 0.151940 -1.973773 0.728224
H 0.152883 -1.803001 1.689827
