31

Ir 0.000000 0.018626 -0.086977
H 0.000000 0.098236 -1.828343
H -0.000001 -0.875370 -1.658243
N -2.089747 0.019520 -0.144201
C -4.895810 0.017875 -0.407656
C -4.171884 1.219084 -0.407933
C -2.781027 1.183361 -0.279895
C -2.791435 -1.146173 -0.128457
C -4.182790 -1.179885 -0.263371
H -5.990945 0.016841 -0.515614
H -4.672073 2.192599 -0.512587
H -2.174577 2.098980 -0.285552
H -2.185064 -2.053553 0.015908
H -4.692955 -2.153877 -0.248183
N 2.089747 0.019519 -0.144202
C 4.895810 0.017874 -0.407656
C 4.182791 -1.179886 -0.263358
C 2.791436 -1.146173 -0.128445
C 2.781026 1.183359 -0.279909
C 4.171882 1.219082 -0.407947
H 5.990945 0.016840 -0.515613
H 4.692957 -2.153876 -0.248158
H 2.185066 -2.053552 0.015930
H 2.174575 2.098977 -0.285577
H 4.672071 2.192596 -0.512612
C 0.000001 1.616091 0.909407
N 0.000004 2.663134 1.569357
H 0.000005 2.620056 2.600263
C -0.000002 -1.885425 0.743881
C -0.000003 -2.994234 1.302693
H -0.000005 -3.944020 1.820836
