29

Ir -0.159628 0.082463 0.136214
H -0.073989 -0.063704 1.959635
H -0.058190 -0.929248 1.861340
N 1.913678 0.056490 0.107646
C 4.065820 0.702955 0.238375
C 2.758077 1.141566 0.281566
N 3.992995 -0.662227 0.039257
C 2.685700 -1.027576 -0.038286
H 4.781914 -1.304031 -0.038110
H 5.015231 1.238116 0.331504
H 2.363914 2.152221 0.421485
H 2.277270 -2.034082 -0.219841
N -2.349649 0.031436 0.172491
C -2.845009 -1.095269 1.012475
C -2.904272 1.297851 0.720580
C -2.851406 -0.162723 -1.217234
H -2.505049 1.462922 1.737659
H -4.015804 1.242601 0.758119
H -2.601535 2.148019 0.083947
H -2.441082 -1.114968 -1.601983
H -2.498672 0.668839 -1.853409
H -3.964853 -0.192891 -1.219541
H -2.504072 -0.952593 2.054303
H -2.428594 -2.039904 0.613680
H -3.957139 -1.120225 0.990408
C -0.174743 1.765360 -0.594264
O -0.178578 2.819689 -1.132269
S -0.181222 -2.355502 -0.625309
H -0.073968 -2.093104 -1.959583
