38

Ir -0.121344 -0.084297 -0.266410
H -0.084222 -0.437764 -1.944570
H -0.139547 -1.330378 -1.576594
C -2.176735 -0.046404 -0.162954
C -4.269204 0.118682 0.700666
C -4.398718 -0.198139 -0.625128
H -5.025479 0.277927 1.474613
H -5.287713 -0.367019 -1.239598
C -2.814155 -0.619520 -2.522169
H -2.092163 0.109371 -2.937196
H -2.375431 -1.634155 -2.597847
H -3.749957 -0.583717 -3.108908
C -2.350356 0.482235 2.282658
H -1.668141 -0.349042 2.540825
H -1.802604 1.443518 2.280613
H -3.179779 0.523743 3.012191
N -2.912837 0.213577 0.962025
N -3.111961 -0.288441 -1.138241
P 2.200314 -0.082804 -0.151474
C 5.333384 -0.024381 0.004838
C 4.638929 1.198726 -0.032040
C 3.244427 1.304873 -0.108634
C 3.291752 -1.430888 -0.097151
C 4.681078 -1.270616 -0.025400
H 6.432434 -0.004779 0.061565
H 5.227175 2.131615 -0.001428
H 2.767803 2.297141 -0.136216
H 2.820782 -2.425448 -0.085515
H 5.301156 -2.182481 0.012851
C -0.127401 1.727133 0.251335
N -0.189292 2.861637 0.702220
C -0.187989 4.191008 0.156581
H 0.661851 4.772111 0.572457
H -1.115372 4.724505 0.452655
H -0.114255 4.199154 -0.954045
N -0.228495 -2.043248 0.851726
O 0.691828 -2.866251 0.757712
O -1.233043 -2.287785 1.539796
