36

Ir 0.139586 -0.133129 -0.259770
H 0.204562 -0.818125 -1.805376
H 0.166307 -1.643826 -1.199862
C -1.860166 0.070816 -0.262548
C -3.984789 0.776989 0.189588
C -4.080759 -0.331522 -0.603324
H -4.758171 1.412990 0.629409
H -4.955762 -0.864542 -0.986003
C -2.479344 -1.994040 -1.554354
H -1.870235 -1.809279 -2.459784
H -1.926120 -2.651259 -0.855377
H -3.429133 -2.477477 -1.847473
C -2.144692 2.071489 1.258347
H -1.233262 1.725889 1.778333
H -1.898187 2.981001 0.675446
H -2.928250 2.313374 2.001117
N -2.631572 1.006753 0.395072
N -2.786320 -0.747535 -0.871468
N 2.295759 -0.361358 -0.200765
C 4.386371 -0.989802 0.323972
C 3.054104 -1.138042 0.655769
N 4.415692 -0.108848 -0.742941
C 3.136214 0.251845 -1.034530
H 5.247804 0.219726 -1.232664
H 5.295589 -1.424992 0.749289
H 2.543872 -1.707316 1.445813
H 2.846747 0.954844 -1.822551
C 0.449347 1.718120 -0.264596
N 0.796887 2.892998 -0.367352
C 1.014834 3.933265 0.604193
H 0.273643 4.750425 0.465451
H 2.016739 4.389646 0.459065
H 0.947519 3.571528 1.655868
N -0.213253 -1.622697 1.372148
O 0.669058 -1.900075 2.204274
O -1.341419 -2.137627 1.468684
