46

Ir -0.274464 -0.386851 -0.123051
H -0.395530 -1.348619 -1.525131
H -0.262820 -0.502627 -1.964063
P 2.074407 -0.716163 -0.058555
C 2.818175 -0.473653 1.625080
C 3.094750 0.407860 -1.126184
C 2.658054 0.479062 -2.589867
C 2.680564 -2.403464 -0.551948
C 1.960605 -3.571285 0.124294
C 2.401367 0.830511 2.310053
H 2.494522 -1.350505 2.225409
H 3.922351 -0.545094 1.513602
H 3.042700 1.418564 -0.668369
H 4.146378 0.058678 -1.028245
H 2.548806 -2.453313 -1.654212
H 3.776058 -2.430196 -0.361362
H 1.624450 0.870013 -2.665752
H 3.320621 1.166144 -3.153665
H 2.694872 -0.509228 -3.093735
H 2.066855 -3.546517 1.227448
H 0.874485 -3.544437 -0.092547
H 2.366413 -4.540522 -0.230589
H 2.684473 1.731633 1.728340
H 1.300764 0.865333 2.438424
H 2.871789 0.911352 3.311160
C -2.292434 0.054240 -0.102738
C -4.257980 1.124773 0.302811
C -4.531674 0.064025 -0.518559
H -4.916254 1.885676 0.732467
H -5.475293 -0.285994 -0.947463
C -3.171461 -1.770285 -1.570731
H -2.749425 -1.510770 -2.562919
H -2.482449 -2.475818 -1.069812
H -4.159794 -2.246421 -1.707938
C -2.209847 2.061582 1.407683
H -1.300572 1.585893 1.816912
H -1.894705 2.950885 0.829534
H -2.888611 2.359647 2.229392
N -2.893718 1.097870 0.553360
N -3.324004 -0.582347 -0.746375
C -0.453108 -1.359014 1.450049
N -0.577575 -2.123216 2.410350
H -0.521391 -1.783098 3.378423
N 0.138949 1.694003 -0.532670
C 0.790591 2.687857 -0.370954
S 1.687357 4.025118 -0.154915
