34

Ir -0.616068 -0.224865 -0.189721
H -0.821302 -0.629990 -1.858580
H -0.506589 0.244073 -2.001966
As 1.667504 -0.943482 -0.147265
C 2.600095 -0.521906 1.512840
C 2.802026 -0.122935 -1.506104
C 1.961047 -2.862698 -0.370947
H 2.657374 0.581225 1.604822
H 3.620810 -0.951283 1.493283
H 2.024041 -0.939375 2.359543
H 2.862568 0.963057 -1.291698
H 2.349242 -0.284052 -2.502406
H 3.814951 -0.569126 -1.470026
H 1.403766 -3.397368 0.421792
H 3.040235 -3.102160 -0.305259
H 1.562746 -3.171654 -1.355926
N -2.665837 0.690248 -0.087835
C -2.831619 1.258549 1.275684
C -2.776016 1.787400 -1.082916
C -3.722073 -0.317009 -0.346172
H -1.950139 2.503355 -0.918562
H -3.756960 2.302596 -0.977897
H -2.691908 1.370042 -2.103128
H -3.661339 -1.125120 0.405149
H -3.574133 -0.759570 -1.348237
H -4.729224 0.156207 -0.295671
H -2.015731 1.980545 1.462026
H -2.766397 0.447587 2.023350
H -3.818725 1.767168 1.362298
C -1.066714 -1.628203 0.921635
O -1.336172 -2.552486 1.602785
N 0.137293 1.789196 0.103442
C 1.117616 2.468606 0.269367
S 2.453082 3.359768 0.487095
