31

Ir -0.184398 -0.003908 0.218896
H -0.178849 -0.020642 1.915834
H -0.198514 -0.991900 1.795122
As 2.181050 -0.110508 -0.016367
C 2.892054 0.796570 -1.598145
C 2.812321 -1.945937 -0.233677
C 3.303149 0.625642 1.411433
H 2.420828 0.344396 -2.491357
H 3.993872 0.698822 -1.655672
H 2.603582 1.863508 -1.542389
H 2.028765 -2.436382 -0.846971
H 2.847327 -2.431319 0.760592
H 3.811056 -1.979982 -0.709388
H 3.076598 1.704105 1.513831
H 4.378296 0.482313 1.186523
H 3.045133 0.116553 2.359835
N -2.296314 -0.102109 0.097711
C -4.626534 0.277335 0.099942
O -4.257147 -0.975350 -0.558991
C -2.922373 -1.059399 -0.502950
C -3.280450 0.878871 0.574887
H -3.202413 0.976806 1.677193
H -3.052123 1.872402 0.137968
H -5.325108 0.032088 0.924497
H -5.158374 0.903794 -0.644159
H -2.359075 -1.906348 -0.946391
C -0.189119 1.749779 -0.387079
N -0.207853 2.952071 -0.690766
H -0.246993 3.224540 -1.683077
O -0.295903 -1.994221 -0.706839
H -0.240694 -2.635436 0.024701
