28

Ir -0.038201 -0.200560 -0.140923
H 0.016130 -0.566763 -1.789543
H -0.077039 0.432817 -1.838480
N 2.014996 -0.021427 -0.108310
C 2.607635 1.202965 -0.098156
C 4.002499 1.317061 -0.141463
N 4.829933 0.260436 -0.190791
C 4.229849 -0.940338 -0.187825
C 2.839995 -1.101844 -0.148332
H 1.913033 2.057505 -0.037513
H 4.459858 2.321526 -0.135106
H 4.876162 -1.834534 -0.222561
H 2.362780 -2.091288 -0.146545
N -2.116908 -0.359275 -0.210013
C -4.164383 -1.264358 -0.437436
C -2.812400 -1.538483 -0.424924
N -4.267954 0.096102 -0.226208
C -3.022165 0.619907 -0.090521
H -5.131378 0.637424 -0.173950
H -5.036539 -1.909626 -0.575585
H -2.287021 -2.490698 -0.542144
H -2.826187 1.682451 0.098373
C 0.022175 -1.694228 0.971788
N 0.069624 -2.791189 1.535884
H 0.028947 -2.863971 2.561480
N -0.175238 1.932229 0.368136
C -0.969516 2.828374 0.535893
O -1.780067 3.709477 0.699703
