35

Ir -0.002989 -0.239226 -0.394389
H 0.258289 -0.347747 -2.082740
H -0.094170 0.558566 -2.051555
N 1.899923 0.515673 -0.173173
C 3.007755 -0.272864 -0.186908
C 4.287316 0.287340 -0.094890
N 4.505356 1.607754 0.007704
C 3.402501 2.373288 0.027876
C 2.104168 1.855932 -0.058629
H 2.845076 -1.355390 -0.276576
H 5.169249 -0.376287 -0.111691
H 3.540858 3.464484 0.118039
H 1.193985 2.474848 -0.023770
N -2.050825 -0.978668 -0.636314
C -2.722669 -1.068344 0.693487
C -2.854618 -0.069266 -1.504444
C -2.035104 -2.329487 -1.262823
H -2.933700 0.928013 -1.037431
H -3.875000 -0.490416 -1.636650
H -2.367148 0.023533 -2.491340
H -1.458003 -3.027588 -0.631133
H -1.548745 -2.270216 -2.253152
H -3.076330 -2.703578 -1.382457
H -2.774638 -0.065642 1.155415
H -2.148368 -1.745663 1.349401
H -3.754913 -1.462365 0.563804
C 0.444980 -1.769676 0.578357
N 0.780144 -2.817941 1.115181
C 0.817725 -3.338095 2.454640
H 1.854774 -3.633523 2.718184
H 0.197490 -4.256314 2.523602
H 0.456101 -2.606231 3.210286
N -0.814052 1.655147 0.292402
C -1.775180 2.241556 0.718368
S -3.097482 2.998493 1.267307
