30

Ir -0.074584 0.062868 -0.268384
H -0.106362 0.021328 -1.950000
H -0.022109 -0.957387 -1.791346
P -2.302270 -0.201070 0.044403
C -2.595578 -0.530338 1.824682
C -2.906035 -1.726323 -0.777148
C -3.473694 1.136337 -0.418701
H -1.861688 -1.323719 2.075440
H -3.633650 -0.861516 2.028598
H -2.356658 0.380288 2.406661
H -2.200559 -2.515380 -0.446381
H -2.832018 -1.613632 -1.875951
H -3.945766 -1.976805 -0.485432
H -3.166098 2.062752 0.104926
H -4.516019 0.878385 -0.142246
H -3.409410 1.313954 -1.509839
N 2.049242 -0.088930 -0.135703
C 4.391572 0.172488 0.023722
O 3.931138 -1.121016 0.525385
C 2.600958 -1.136031 0.383384
C 3.097849 0.897627 -0.425335
H 3.086147 1.152663 -1.504719
H 2.888749 1.828153 0.141710
H 5.105713 -0.021253 -0.801457
H 4.927689 0.681743 0.849170
H 1.996815 -2.000597 0.718493
C -0.112507 1.787209 0.410014
N -0.137585 2.918597 0.910692
H -0.167151 3.754651 0.310230
F -0.039632 -1.897084 0.679993
