32

Ir -0.015313 -0.079152 -0.241857
H 0.048132 -0.469865 -1.986189
H 0.117237 -1.302898 -1.707877
P -2.274681 -0.192450 -0.094237
C -2.832048 -0.444073 1.638111
C -3.007061 -1.612257 -1.004248
C -3.243074 1.267017 -0.666736
H -2.299192 -1.343074 2.007409
H -3.930751 -0.577540 1.704673
H -2.514238 0.428814 2.240518
H -2.483466 -2.518448 -0.638968
H -2.809221 -1.495194 -2.087584
H -4.098636 -1.690146 -0.827209
H -2.911759 2.155507 -0.094608
H -4.331575 1.113763 -0.519964
H -3.030961 1.444945 -1.738759
N 2.135418 -0.122904 -0.162601
C 4.317719 0.404594 -0.291227
C 3.036453 0.843961 -0.564087
N 4.163961 -0.844532 0.282389
C 2.837489 -1.135197 0.349201
H 4.914043 -1.453913 0.609158
H 5.298113 0.862404 -0.452616
H 2.698719 1.781863 -1.015448
H 2.373645 -2.048438 0.753570
C -0.054621 1.639928 0.431084
N -0.085217 2.747442 0.958358
C -0.064286 4.096690 0.464550
H 0.803567 4.647043 0.886562
H -0.974574 4.641166 0.795608
H -0.009210 4.152633 -0.646701
Cl -0.059007 -2.480659 0.768709
