37

Ir 0.033550 -0.164404 0.151422
H 0.055371 -1.084469 1.585976
H 0.034306 -0.220179 2.012991
As -2.407262 0.042281 0.057861
C -2.907064 1.410636 -1.240054
C -3.214083 0.731190 1.700466
C -3.564731 -1.474513 -0.411224
H -2.268120 2.276367 -0.978576
H -3.982594 1.664796 -1.170323
H -2.660152 1.050945 -2.256648
H -2.635227 1.644623 1.933564
H -3.088689 -0.009492 2.513066
H -4.286173 0.970176 1.559789
H -3.220606 -1.890698 -1.377865
H -4.624137 -1.161717 -0.493320
H -3.465617 -2.258562 0.364023
C 2.070804 0.113975 0.099237
C 4.371209 -0.231204 0.412544
C 4.158167 1.043709 -0.410388
H 4.716597 -0.012005 1.451246
H 4.453636 0.911533 -1.478291
C 2.081690 2.355537 -0.999949
H 2.074190 2.195409 -2.102177
H 1.039754 2.461464 -0.602662
H 2.659551 3.277574 -0.782685
C 2.797603 -2.069566 1.093047
H 2.912073 -1.990784 2.199427
H 1.773011 -2.415858 0.866397
H 3.527095 -2.818220 0.720115
N 3.022274 -0.802573 0.438234
N 2.707639 1.237369 -0.316979
H 4.707143 1.922636 -0.014868
H 5.097995 -0.935427 -0.042400
C 0.143159 -1.332522 -1.279183
O 0.222162 -2.108468 -2.163436
O -0.419448 1.999734 0.477687
H -0.114756 2.228592 1.374534
