30

Ir -0.101365 0.109652 -0.182247
H -0.175067 0.108456 -1.902256
H -0.171730 -0.826274 -1.769434
N -2.235285 0.025265 -0.096698
C -2.875953 -1.142344 0.155889
C -4.276896 -1.193466 0.168108
N -5.053235 -0.121875 -0.059517
C -4.402227 1.027134 -0.298597
C -3.004131 1.118855 -0.321621
H -2.224241 -2.012928 0.355729
H -4.781855 -2.153163 0.373715
H -5.010295 1.929269 -0.485921
H -2.478470 2.065005 -0.514846
As 2.285366 0.022066 -0.099061
C 3.258285 1.638267 -0.615906
C 3.066478 -1.388135 -1.196889
C 2.953425 -0.372683 1.689734
H 3.050957 1.852562 -1.681525
H 4.347302 1.511669 -0.459818
H 2.878098 2.480654 -0.007083
H 2.836774 -1.185995 -2.260287
H 2.568460 -2.325976 -0.883896
H 4.161781 -1.446741 -1.046003
H 2.674996 0.460439 2.362190
H 4.051835 -0.512292 1.683105
H 2.432131 -1.294668 2.011475
C -0.080122 1.751290 0.676031
N -0.091687 2.911649 1.097326
H -0.057212 3.119637 2.103929
Cl 0.124286 -2.310576 0.664396
