40

Ir -0.058544 -0.185619 -0.210918
H -0.259130 -0.636162 -1.968500
H -0.216790 -1.452652 -1.631643
N -2.250418 -0.182806 -0.160016
C -5.063967 -0.139904 -0.131078
C -4.335772 0.899074 -0.728596
C -2.937865 0.840869 -0.722914
C -2.952734 -1.184486 0.423451
C -4.352096 -1.196670 0.454029
H -6.164595 -0.124539 -0.120497
H -4.838660 1.755569 -1.200739
H -2.319251 1.627901 -1.178510
H -2.337808 -1.982934 0.872549
H -4.869819 -2.036287 0.940477
C 1.934888 -0.166986 -0.163420
C 4.190059 -0.351364 -0.776304
C 4.101403 0.047267 0.700605
H 4.505136 -1.415031 -0.903313
H 4.400617 1.110197 0.867366
C 2.162846 0.045900 2.320808
H 1.965750 1.116804 2.548289
H 1.219477 -0.522404 2.422880
H 2.905723 -0.352912 3.040527
C 2.462804 -0.348860 -2.607593
H 2.365057 -1.422407 -2.890652
H 1.500511 0.157931 -2.812284
H 3.249729 0.109380 -3.240801
N 2.807407 -0.169854 -1.218713
N 2.676869 -0.131458 0.976562
H 4.722886 -0.588598 1.363478
H 4.886786 0.282732 -1.362293
C -0.028322 1.585327 0.406116
N 0.037621 2.625980 1.063466
C -0.016687 4.004976 0.647652
H 0.908236 4.534571 0.961667
H -0.861465 4.522784 1.150406
H -0.133189 4.129576 -0.454037
C -0.017896 -1.977726 0.821528
C 0.010060 -2.995343 1.532709
H 0.037978 -3.886350 2.145258
