45

Ir 0.087351 0.152116 -0.133494
H 0.064819 1.137710 -1.507304
H 0.100112 0.289219 -1.980161
P -2.256253 -0.104391 -0.059675
C -2.799887 -0.904048 1.524736
C -2.870643 -1.269685 -1.360968
C -2.859029 -0.721516 -2.787925
C -3.366626 1.378863 -0.189867
C -3.035623 2.510306 0.785620
C -1.983922 -2.135679 1.924666
H -2.711312 -0.115810 2.302906
H -3.882609 -1.140542 1.424716
H -2.151548 -2.111479 -1.265600
H -3.884526 -1.612666 -1.060873
H -3.265664 1.734409 -1.237059
H -4.415737 1.028089 -0.070482
H -1.848005 -0.359997 -3.065976
H -3.133683 -1.518703 -3.508413
H -3.575375 0.113528 -2.933101
H -3.121488 2.190402 1.843909
H -1.999401 2.873227 0.637675
H -3.724623 3.367462 0.641862
H -2.005447 -2.921149 1.145619
H -0.920737 -1.861123 2.070193
H -2.372242 -2.564272 2.871286
C 2.149692 -0.025607 -0.134339
C 4.280523 -0.898709 0.279578
C 4.423374 0.410611 -0.506015
H 4.615123 -0.795590 1.338974
H 4.743949 0.237889 -1.560860
C 2.756749 2.208172 -1.084177
H 2.802935 2.157542 -2.196960
H 1.739533 2.521533 -0.786066
H 3.487861 2.968005 -0.738573
C 2.263594 -2.300198 0.883420
H 2.306517 -2.199543 1.991988
H 1.214697 -2.413272 0.523417
H 2.846211 -3.196988 0.588831
N 2.833745 -1.133263 0.235558
N 3.054303 0.934123 -0.473200
H 5.138239 1.125230 -0.048465
H 4.837662 -1.746123 -0.169481
C 0.147637 1.186783 1.392387
O 0.197445 1.904351 2.326993
F -0.133160 -1.978957 -0.599220
