34

Ir 0.067780 -0.074084 0.352877
H 0.124824 -0.348873 2.040584
H 0.158457 -1.259761 1.737161
As 2.486369 -0.171473 0.051522
C 2.984623 -0.170361 -1.833989
C 3.304670 -1.807157 0.729979
C 3.573882 1.264728 0.819998
H 2.391924 -0.981032 -2.300218
H 4.071107 -0.342283 -1.961372
H 2.691808 0.800465 -2.276381
H 2.731041 -2.638219 0.275842
H 3.190566 -1.837603 1.830183
H 4.375188 -1.861124 0.452547
H 3.189635 2.232768 0.445693
H 4.639803 1.145437 0.544385
H 3.464311 1.244539 1.921009
P -2.214486 -0.132409 0.192953
C -5.323071 -0.273311 -0.140092
C -4.549001 -1.374375 -0.554485
C -3.153986 -1.435660 -0.461048
C -3.384525 1.076361 0.616550
C -4.759528 0.889600 0.414414
H -6.416287 -0.324183 -0.256885
H -5.072902 -2.245325 -0.984011
H -2.582592 -2.309392 -0.813785
H -3.009599 2.013564 1.057110
H -5.439568 1.706301 0.710897
C 0.079082 1.753749 -0.081607
N 0.094351 2.960216 -0.239116
C 0.079507 3.924632 -1.296949
H 0.951796 4.605641 -1.208644
H -0.830348 4.556714 -1.224433
H 0.098294 3.451133 -2.303695
Cl 0.202953 -2.239431 -1.003227
