42

Ir 0.402017 0.068996 -0.195865
H 0.399877 -0.323311 -2.007225
H 0.459442 -1.153212 -1.853704
P -1.863396 -0.013306 -0.005458
C -2.484519 0.622341 1.623421
C -2.640612 -1.694921 -0.121058
C -2.308348 -2.494641 -1.381381
C -2.848105 0.958135 -1.251414
C -2.417551 2.412570 -1.442274
C -1.769585 0.018299 2.834278
H -2.329492 1.721540 1.598671
H -3.581581 0.442314 1.653008
H -2.274473 -2.242723 0.771034
H -3.735473 -1.534047 -0.007430
H -2.749302 0.399286 -2.206357
H -3.915919 0.884952 -0.948350
H -1.235882 -2.771433 -1.376288
H -2.898601 -3.433319 -1.404425
H -2.533407 -1.940371 -2.316067
H -2.498592 2.996801 -0.503137
H -1.362013 2.464775 -1.775980
H -3.050957 2.912517 -2.203173
H -2.187292 0.428171 3.776162
H -1.861823 -1.085487 2.868921
H -0.687332 0.251948 2.796674
N 2.679786 0.078623 -0.163156
C 3.226051 1.331986 -0.729464
C 3.076214 -0.046650 1.262964
C 3.220826 -1.075005 -0.923085
H 2.679042 0.815575 1.829499
H 4.186927 -0.074534 1.354352
H 2.634671 -0.976973 1.668020
H 2.963963 -0.962742 -1.993071
H 2.759674 -2.003245 -0.534693
H 4.328944 -1.119332 -0.819179
H 2.856017 2.196134 -0.148661
H 2.889481 1.441586 -1.777230
H 4.340418 1.320369 -0.698609
C 0.351582 1.796067 0.390522
N 0.335866 2.889832 0.973759
H 0.290387 3.765224 0.434986
Cl 0.562567 -2.310694 0.690379
