54

Ir 1.252503 -0.055764 -0.291248
H 1.252619 -0.226964 -1.974683
H 1.270230 -1.189504 -1.701047
P -1.001012 -0.121172 -0.080023
C -1.460903 2.168840 -1.638399
C -1.959476 1.375387 -0.585164
C -1.529937 -0.375458 1.677225
C -0.972728 0.463126 2.668254
C -1.359868 0.318821 4.008315
C -2.294748 -0.664785 4.375071
C -2.846709 -1.502124 3.393630
C -2.469621 -1.358240 2.047676
C -1.792908 -1.518929 -0.982828
C -1.159110 -2.779217 -0.879548
C -1.723507 -3.884667 -1.533180
C -2.897550 -3.742871 -2.294115
C -3.517220 -2.487633 -2.400416
C -2.969715 -1.373063 -1.742839
C -3.171581 1.733550 0.040181
C -3.875403 2.870966 -0.386449
C -3.376037 3.657087 -1.437902
C -2.168772 3.303381 -2.063367
H -0.499572 1.894144 -2.101638
H -0.230856 1.225946 2.383771
H -0.921405 0.977408 4.773979
H -2.590356 -0.780406 5.429402
H -3.576334 -2.277540 3.674165
H -2.904080 -2.018895 1.282561
H -0.228362 -2.850880 -0.272238
H -1.235549 -4.868832 -1.452617
H -3.330004 -4.614392 -2.810374
H -4.433155 -2.371288 -3.000426
H -3.458573 -0.390522 -1.827432
H -3.561827 1.125785 0.871105
H -4.818239 3.147389 0.110439
H -3.927559 4.551362 -1.767338
H -1.770163 3.919726 -2.884168
N 3.385902 -0.246187 -0.222974
C 5.615174 -0.028986 -0.344322
C 4.409028 0.580831 -0.635576
N 5.285136 -1.235103 0.250005
C 3.931317 -1.339428 0.311196
H 5.942764 -1.937893 0.587647
H 6.650813 0.285153 -0.505137
H 4.206940 1.548694 -1.104979
H 3.288737 -2.140130 0.728528
C 1.292871 1.716662 0.305708
N 1.261426 2.865000 0.739655
C 1.180518 4.157216 0.113041
H 0.160323 4.577734 0.246170
H 1.394658 4.121141 -0.979564
H 1.890324 4.865233 0.589817
O 1.282577 -2.008671 0.775705
H 0.914542 -1.820479 1.660932
