34

Ir -0.109916 -0.067817 -0.205118
H -0.171924 -0.458497 -1.999414
H -0.210106 -1.298530 -1.808427
N -2.230057 -0.093055 -0.096380
C -2.972544 0.979281 0.282229
C -4.367721 0.905924 0.355580
N -5.061324 -0.205779 0.055676
C -4.318242 -1.262386 -0.307418
C -2.919168 -1.230096 -0.382062
H -2.424991 1.900175 0.527139
H -4.941164 1.795033 0.670780
H -4.849674 -2.198133 -0.554048
H -2.316914 -2.118727 -0.624627
As 2.269722 -0.224230 -0.028027
C 3.312824 1.333631 -0.606028
C 3.094350 -1.695577 -1.014979
C 2.915751 -0.499901 1.794014
H 3.097140 1.533613 -1.672827
H 4.397225 1.158110 -0.465282
H 2.990934 2.207323 -0.007693
H 2.875015 -1.574267 -2.092935
H 2.628369 -2.628880 -0.645496
H 4.189103 -1.711855 -0.849139
H 2.579625 0.351907 2.414860
H 4.019985 -0.581971 1.815094
H 2.442803 -1.431130 2.158577
C 0.004117 1.737345 0.206992
N 0.111899 2.884595 0.626888
C 0.206061 4.191364 0.037087
H 0.076025 4.176501 -1.068324
H 1.195028 4.643824 0.265346
H -0.559334 4.867126 0.473204
S -0.042012 -2.424389 0.740327
H -0.258460 -2.077738 2.041190
