62

Ir -1.059267 -0.094522 0.330509
H -0.992564 0.215922 2.013705
H -0.957971 -0.735013 2.066998
P 1.279460 -0.067261 0.079143
C 1.572094 2.615609 0.817750
C 2.063144 1.603775 -0.035146
C 1.825405 -0.929002 -1.458148
C 0.958698 -0.933619 -2.569171
C 1.356847 -1.544389 -3.767193
C 2.615434 -2.160610 -3.863495
C 3.477188 -2.168059 -2.754500
C 3.084568 -1.556417 -1.553393
C 2.242050 -0.920162 1.401356
C 1.853154 -2.244535 1.705371
C 2.535531 -2.954590 2.702663
C 3.596985 -2.354396 3.404067
C 3.977937 -1.037322 3.103871
C 3.305010 -0.317701 2.101169
C 3.105860 1.906866 -0.933031
C 3.650456 3.201067 -0.973216
C 3.164210 4.200841 -0.115788
C 2.124428 3.904357 0.782044
H 0.733364 2.383320 1.493294
H -0.034221 -0.466887 -2.470536
H 0.672856 -1.548083 -4.630028
H 2.922987 -2.645162 -4.803324
H 4.460594 -2.658922 -2.821321
H 3.756892 -1.575859 -0.681612
H 1.005116 -2.674291 1.136755
H 2.235188 -3.987934 2.937643
H 4.128812 -2.915952 4.188073
H 4.807524 -0.563193 3.651300
H 3.609607 0.713447 1.865215
H 3.488217 1.130200 -1.612371
H 4.459891 3.429035 -1.683990
H 3.592284 5.214720 -0.150729
H 1.732936 4.685508 1.452251
C -3.103459 -0.306886 0.246056
C -5.394152 -0.100796 0.713967
C -5.211939 -0.895014 -0.585000
H -5.735156 -0.745246 1.559368
H -5.511154 -0.306182 -1.484547
C -3.155750 -1.856544 -1.705850
H -3.106265 -1.224364 -2.621399
H -2.131982 -2.173147 -1.380620
H -3.769258 -2.753555 -1.928691
C -3.769364 1.256612 2.080827
H -3.855446 0.723356 3.056259
H -2.741932 1.654366 1.981934
H -4.491693 2.099676 2.080455
N -4.034471 0.385417 0.961620
N -3.765180 -1.132521 -0.603545
H -5.777596 -1.848962 -0.602395
H -6.112206 0.740104 0.620907
C -1.207933 1.457989 -0.696683
N -1.270846 2.439870 -1.426479
C -1.264745 3.858477 -1.198199
H -2.026171 4.357912 -1.833176
H -0.275648 4.280984 -1.478228
H -1.459374 4.126556 -0.134322
O -0.739355 -2.263892 -0.080511
H -1.257639 -2.736758 0.597771
