32

Ir -0.311205 0.114671 -0.211464
H -0.327019 0.198748 -1.943941
H -0.360981 -0.747500 -1.817226
P -2.665169 0.175902 -0.129647
C -3.339312 0.109888 1.571582
C -3.491687 -1.176982 -1.050500
C -3.378084 1.711032 -0.850027
H -2.933242 -0.809805 2.033621
H -4.447615 0.087084 1.561149
H -2.983217 0.996345 2.131157
H -3.131041 -2.132733 -0.626280
H -3.209726 -1.113677 -2.119412
H -4.592903 -1.101142 -0.948846
H -2.986836 2.589025 -0.300279
H -4.485131 1.698710 -0.789307
H -3.064732 1.797299 -1.908487
P 2.020214 0.063731 -0.091164
C 5.145845 0.120757 -0.002050
C 4.497282 -1.117437 -0.159787
C 3.107188 -1.280017 -0.218529
C 3.053738 1.446763 0.080835
C 4.449853 1.337727 0.114292
H 6.245719 0.138510 0.032855
H 5.120487 -2.024044 -0.241425
H 2.640544 -2.271210 -0.315154
H 2.575335 2.434321 0.174894
H 5.035959 2.263977 0.237137
C -0.304981 1.809347 0.584522
O -0.352304 2.865678 1.095921
N -0.447747 -1.994316 0.516800
O 0.519178 -2.757669 0.420110
O -1.512286 -2.387302 1.033322
