29

Ir 0.120578 0.330035 0.184092
H 0.215760 0.248081 1.991566
H 0.214811 -0.617892 1.880063
N 2.254021 0.238898 0.118496
C 2.905245 -0.937458 0.307219
C 4.306092 -0.989329 0.307003
N 5.081499 0.088989 0.117059
C 4.425781 1.243570 -0.080548
C 3.028688 1.336403 -0.077766
H 2.272148 -1.833144 0.424574
H 4.809891 -1.958240 0.466900
H 5.029335 2.152581 -0.247145
H 2.514851 2.295512 -0.230110
As -2.279531 0.228812 0.140618
C -3.219739 1.895382 0.551356
C -3.061992 -1.056776 1.381551
C -3.007785 -0.277158 -1.594895
H -2.950659 2.214390 1.576123
H -4.315467 1.754626 0.474024
H -2.886795 2.673757 -0.161540
H -2.799499 -0.762293 2.415450
H -2.610118 -2.040448 1.151103
H -4.162355 -1.086846 1.262171
H -2.715858 0.492428 -2.334105
H -4.110561 -0.363716 -1.544265
H -2.542554 -1.243053 -1.868876
C 0.038995 1.952596 -0.664214
O -0.040470 2.997364 -1.204517
Br -0.101128 -2.290479 -0.481782
