27

Ir -0.006147 0.363975 0.121639
H -0.026321 0.837356 1.822373
H -0.011299 -0.071028 1.928048
N 2.063463 0.354844 0.120976
C 2.790789 1.170906 0.923155
C 4.190180 1.118959 0.918279
N 4.884430 0.292969 0.120102
C 4.152421 -0.500594 -0.675535
C 2.749879 -0.492908 -0.686879
H 2.228527 1.870562 1.557096
H 4.761742 1.785227 1.587109
H 4.693358 -1.190881 -1.345236
H 2.148417 -1.175496 -1.305141
N -2.095356 0.303091 0.127452
C -4.901390 0.226136 0.127464
C -4.211426 1.223709 0.831976
C -2.814314 1.235532 0.802009
C -2.757926 -0.664955 -0.556439
C -4.155309 -0.727601 -0.577729
H -6.001475 0.195916 0.126497
H -4.743210 2.000456 1.399675
H -2.227373 2.009013 1.316922
H -2.120010 -1.410730 -1.056321
H -4.642712 -1.531381 -1.147806
C -0.035078 1.566527 -1.291927
O -0.051958 2.333555 -2.180932
Br 0.080418 -2.331547 0.049489
