32

Ir -0.206044 -0.105672 -0.196302
H -0.261871 -0.148779 -1.922498
H -0.255596 0.800040 -1.783237
As 2.193593 -0.142475 -0.130335
C 2.961782 0.107114 1.643576
C 3.111130 1.146475 -1.272030
C 2.983888 -1.847551 -0.686544
H 2.598042 1.082540 2.013480
H 4.067879 0.087593 1.595906
H 2.589101 -0.707063 2.293750
H 2.740097 2.146206 -0.982465
H 2.852173 0.935276 -2.327140
H 4.206940 1.076414 -1.129405
H 2.588802 -2.644059 -0.027910
H 4.088396 -1.810438 -0.612382
H 2.682104 -2.063263 -1.728992
N -2.335448 -0.091461 -0.156619
C -4.604433 -0.767834 -0.129676
O -4.442736 0.682709 -0.068719
C -3.129166 0.926253 -0.062647
C -3.162138 -1.308398 -0.262296
H -2.960602 -1.805618 -1.233162
H -2.879048 -2.017126 0.541163
H -5.257042 -1.000375 -0.993901
H -5.114596 -1.087106 0.801570
H -2.750592 1.959256 0.062028
C -0.179390 -1.698777 0.767433
N -0.126845 -2.670762 1.531679
H -0.146122 -3.628739 1.153963
N -0.069920 2.036145 0.483523
O -1.060352 2.763715 0.668894
O 1.068614 2.478891 0.737150
