30

Ir 0.194907 0.069123 0.142585
H 0.134113 -0.089612 1.959466
H 0.142542 -0.957881 1.837226
N 2.389294 0.054659 0.174263
C 2.888749 -0.099374 -1.221649
C 2.925239 1.316549 0.750856
C 2.904944 -1.084709 0.984499
H 2.606850 2.176738 0.135689
H 4.037438 1.278535 0.783622
H 2.527599 1.450733 1.773114
H 2.499675 -2.025550 0.565794
H 2.569812 -0.971686 2.031823
H 4.016894 -1.094097 0.954468
H 2.524496 0.742834 -1.836998
H 2.488878 -1.047220 -1.628003
H 4.002198 -0.115509 -1.227545
N -1.862840 -0.008825 0.106473
C -4.155486 0.593826 0.132536
O -3.950537 -0.850275 0.071301
C -2.629744 -1.053473 0.024202
C -2.731558 1.177828 0.257852
H -2.526724 1.652521 1.238880
H -2.487320 1.918907 -0.528283
H -4.811599 0.807695 0.998633
H -4.677623 0.898552 -0.797262
H -2.234751 -2.076635 -0.104431
C 0.194641 1.757524 -0.585308
O 0.207962 2.810006 -1.127135
S 0.247629 -2.341588 -0.669861
H 0.092302 -2.053072 -1.993891
