51

Ir -1.132189 -0.105395 0.174150
H -1.138877 0.025589 1.939281
H -1.185356 0.906864 1.771618
N -3.291535 -0.121971 0.213704
C -3.987234 -1.272754 0.381223
C -5.386141 -1.258666 0.462565
N -6.108642 -0.130208 0.383940
C -5.405335 0.999431 0.209216
C -4.005724 1.025461 0.120654
H -3.404488 -2.202966 0.443551
H -5.933656 -2.207186 0.600810
H -5.970757 1.944370 0.133448
H -3.413515 1.944017 -0.048656
P 1.153136 -0.028016 0.049282
C 1.477119 -2.522676 1.354382
C 2.090278 -1.303330 1.003325
C 1.870227 1.546497 0.687992
C 1.791025 1.791616 2.075024
C 2.290521 2.986921 2.609049
C 2.869155 3.948500 1.763423
C 2.946969 3.707397 0.383458
C 2.448154 2.511448 -0.156790
C 1.766959 -0.191774 -1.683839
C 1.104683 0.548228 -2.690134
C 1.530287 0.445364 -4.022703
C 2.597655 -0.402105 -4.365904
C 3.245765 -1.146916 -3.368559
C 2.836016 -1.042478 -2.029094
C 3.438254 -1.075572 1.360840
C 4.160359 -2.057837 2.054503
C 3.545522 -3.273496 2.398394
C 2.206032 -3.502696 2.046951
H 0.425526 -2.698011 1.084336
H 1.338100 1.041727 2.742534
H 2.225275 3.169926 3.692602
H 3.258315 4.889036 2.182699
H 3.395265 4.458698 -0.284548
H 2.505761 2.333387 -1.240117
H 0.262656 1.207642 -2.413240
H 1.015815 1.029811 -4.801135
H 2.922211 -0.485377 -5.414796
H 4.077392 -1.818805 -3.631404
H 3.346867 -1.634351 -1.255467
H 3.922213 -0.121506 1.100903
H 5.209092 -1.869887 2.331684
H 4.112349 -4.041898 2.946572
H 1.718035 -4.451646 2.317329
C -1.115916 -1.722816 -0.715200
N -1.137638 -2.852373 -1.210162
H -1.117121 -2.994878 -2.228823
Cl -1.165453 2.318619 -0.653116
