45

Ir 0.031952 -0.099009 -0.280919
H -0.009506 -0.790415 -1.969881
H 0.015677 -1.582593 -1.639691
P -2.278729 -0.176895 -0.004144
C -2.887459 0.890893 1.389450
C -2.988233 -1.840281 0.409777
C -2.721375 -2.937072 -0.622505
C -3.321046 0.376966 -1.442055
C -2.948299 1.744858 -2.016293
C -2.143730 0.666349 2.707697
H -2.756386 1.938237 1.043467
H -3.981015 0.718095 1.495518
H -2.512843 -2.120972 1.372450
H -4.075968 -1.688786 0.586714
H -3.199175 -0.410750 -2.215682
H -4.384357 0.343065 -1.116163
H -1.635030 -3.148111 -0.672614
H -3.232082 -3.875062 -0.323202
H -3.086416 -2.671887 -1.636155
H -3.065593 2.557234 -1.270752
H -1.891163 1.759530 -2.347391
H -3.592405 1.993504 -2.884274
H -2.263251 -0.370397 3.081102
H -1.056575 0.836412 2.569975
H -2.517093 1.355370 3.492684
As 2.473414 -0.103192 -0.133357
C 3.337506 -1.717682 -0.819355
C 3.084590 -0.057044 1.722013
C 3.489727 1.351289 -0.969509
H 2.827636 -2.565988 -0.322909
H 4.421946 -1.720900 -0.595583
H 3.172968 -1.778463 -1.912139
H 2.554246 -0.883244 2.233872
H 2.778898 0.907113 2.170682
H 4.182692 -0.183268 1.790799
H 3.345126 1.302214 -2.065673
H 4.568000 1.277256 -0.727844
H 3.083491 2.314796 -0.606378
C -0.008523 1.739715 -0.148387
N -0.031404 2.963430 -0.091419
C -0.009425 3.937026 0.963912
H -0.935127 4.551155 0.940096
H 0.840278 4.638781 0.825380
H 0.077035 3.475432 1.973630
Cl 0.314201 -2.245235 1.083243
