34

Ir 0.216878 -0.401649 -0.108352
H 0.437870 -1.145493 -1.600334
H 0.256214 -0.205469 -1.907269
N 2.334119 0.032547 -0.096439
C 3.262874 -0.933313 0.104764
C 4.631233 -0.633272 0.065669
N 5.099016 0.602699 -0.168531
C 4.167489 1.550724 -0.359017
C 2.791112 1.287232 -0.326576
H 2.889470 -1.948334 0.304343
H 5.370882 -1.435975 0.230864
H 4.519601 2.579377 -0.549063
H 2.015932 2.057510 -0.471745
C -1.773972 -0.696687 -0.090965
C -3.894657 -1.303497 -0.653831
C -3.972212 -0.509531 0.457387
H -4.675961 -1.795489 -1.240317
H -4.835722 -0.165389 1.033778
C -2.353006 0.686538 1.939923
H -1.271419 0.599456 2.144644
H -2.589055 1.746479 1.712847
H -2.933806 0.343583 2.818047
C -2.040076 -2.188326 -2.093323
H -1.688791 -1.520409 -2.905296
H -1.192644 -2.817525 -1.761965
H -2.849796 -2.834252 -2.478912
N -2.547318 -1.416950 -0.970281
N -2.674370 -0.158203 0.794733
C 0.406800 -1.624317 1.287011
N 0.588927 -2.566062 2.061288
H 0.549208 -2.446696 3.081569
N -0.151320 1.731166 -0.160988
C -0.917782 2.658406 -0.145198
S -1.943236 3.910969 -0.087603
