42

Ir -0.151238 -0.121731 -0.219283
H -0.209875 -0.684110 -1.886165
H -0.219259 -1.506391 -1.505289
N -2.315792 -0.163402 -0.179676
C -3.044349 0.828186 -0.747489
C -4.444606 0.774161 -0.758415
N -5.137770 -0.241672 -0.220620
C -4.401845 -1.213853 0.341429
C -2.999918 -1.193296 0.373437
H -2.483484 1.665142 -1.188117
H -5.018873 1.592191 -1.227336
H -4.942368 -2.062092 0.796149
H -2.379886 -1.981390 0.840367
P 2.136116 -0.113551 -0.162480
C 2.946295 1.451361 -0.749366
C 2.954053 -1.407422 -1.218461
C 2.785621 -2.856395 -0.755304
C 2.844697 -0.375763 1.528057
C 2.398956 0.663991 2.557854
C 2.571462 1.857297 -2.175791
H 2.634814 2.240100 -0.033781
H 4.043975 1.318122 -0.632450
H 2.522716 -1.264285 -2.231797
H 4.028855 -1.128067 -1.287336
H 2.473077 -1.379083 1.823017
H 3.951524 -0.420634 1.429939
H 1.723347 -3.103997 -0.557290
H 3.183645 -3.551898 -1.521989
H 3.337668 -3.047413 0.186705
H 2.728163 1.691055 2.296117
H 1.293740 0.668176 2.643831
H 2.819776 0.425249 3.555499
H 2.900784 1.105957 -2.922256
H 1.473233 1.973505 -2.270852
H 3.045788 2.822600 -2.445860
C -0.162062 1.695082 0.150061
N -0.191404 2.909438 0.309968
C -0.147091 3.785312 1.450035
H -1.056451 4.421449 1.479515
H 0.720988 4.473174 1.366903
H -0.069797 3.233739 2.413222
Cl -0.070060 -2.235710 1.226896
