40

Ir 0.275899 0.099907 -0.154214
H 0.367466 -0.038260 -1.935427
H 0.388975 -0.912243 -1.774474
P -2.023236 0.101073 -0.139305
C -2.798054 0.647160 1.454045
C -2.905114 -1.486751 -0.528146
C -2.425481 -2.215226 -1.783526
C -2.787354 1.255573 -1.387331
C -2.282347 2.698370 -1.365084
C -2.299089 -0.086429 2.699816
H -2.568119 1.730282 1.534593
H -3.898924 0.551920 1.326719
H -2.757529 -2.128101 0.361754
H -3.983677 -1.224246 -0.595990
H -2.586584 0.793525 -2.377566
H -3.887932 1.209827 -1.232646
H -1.372764 -2.541329 -1.674518
H -3.037924 -3.122986 -1.958293
H -2.496901 -1.588162 -2.696517
H -2.467172 3.187311 -0.386964
H -1.190968 2.732657 -1.553517
H -2.792957 3.303133 -2.142176
H -2.502246 -1.173258 2.657240
H -1.202991 0.032702 2.805388
H -2.785092 0.328354 3.606419
N 2.432835 0.186161 -0.147768
C 4.542432 0.966742 -0.181746
C 3.211015 1.329986 -0.164351
N 4.546933 -0.416161 -0.178563
C 3.262870 -0.859346 -0.158334
H 5.371329 -1.017067 -0.184656
H 5.460786 1.560943 -0.195194
H 2.759520 2.325975 -0.153162
H 2.900654 -1.901552 -0.121768
C 0.216133 1.735884 0.709048
N 0.151041 2.719072 1.459444
H 0.139398 3.666266 1.054118
N 0.302107 -2.040154 0.530739
O -0.651868 -2.436272 1.221091
O 1.252805 -2.819078 0.302332
