30

Ir 0.199278 0.085634 0.196437
H 0.159912 0.008902 1.918611
H 0.166219 -0.918007 1.744804
N 2.375854 0.055028 0.165493
C 2.816757 -0.121319 -1.249970
C 2.957069 1.308699 0.710554
C 2.883480 -1.097255 0.963455
H 2.613257 2.167313 0.106907
H 4.069154 1.258223 0.684298
H 2.616311 1.449604 1.752433
H 2.413019 -2.022524 0.579616
H 2.605326 -0.957994 2.024195
H 3.991134 -1.155883 0.879148
H 2.469346 0.738836 -1.849822
H 2.354750 -1.046767 -1.642908
H 3.926940 -0.188273 -1.293784
N -1.857378 -0.003507 0.146321
C -4.162553 0.533685 0.222307
O -3.915726 -0.860600 -0.136378
C -2.590535 -1.027207 -0.163383
C -2.754340 1.128303 0.451051
H -2.575349 1.467179 1.491451
H -2.513267 1.972905 -0.224850
H -4.807208 0.541268 1.123352
H -4.713556 1.003365 -0.616990
H -2.164018 -2.004272 -0.450703
C 0.177490 1.686219 -0.725694
N 0.169316 2.709823 -1.422998
H 0.153255 3.643949 -0.990665
Cl 0.261023 -2.321354 -0.749492
