35

Ir -0.175111 0.179601 -0.151272
H -0.122694 1.141463 -1.542026
H -0.097810 0.282650 -1.993840
P -2.502236 -0.059795 -0.143189
C -2.936076 -1.352294 1.085395
C -3.125840 -0.755767 -1.723608
C -3.600133 1.365174 0.250403
H -2.263913 -2.195075 0.825758
H -4.001075 -1.654881 1.030027
H -2.688932 -0.986296 2.100510
H -2.465810 -1.627262 -1.910091
H -2.991162 -0.017017 -2.537385
H -4.188446 -1.065684 -1.661046
H -3.288630 1.781347 1.228986
H -4.667383 1.067139 0.295587
H -3.467111 2.151217 -0.518602
C 1.871641 -0.061283 -0.087244
C 3.901421 -1.010886 0.288227
C 4.123626 0.207452 -0.299145
H 4.601667 -1.779758 0.628337
H 5.053771 0.708987 -0.582672
C 2.647549 2.057999 -1.155887
H 1.773786 2.545701 -0.684699
H 3.545914 2.692932 -1.039195
H 2.430219 1.925487 -2.236105
C 1.852021 -2.293872 1.028115
H 0.891556 -2.453020 0.482940
H 2.502618 -3.184809 0.946407
H 1.652491 -2.077268 2.097333
N 2.528314 -1.156174 0.408238
N 2.873780 0.775662 -0.511901
C -0.194047 1.114125 1.445868
N -0.248946 1.677574 2.544580
H -0.191756 2.701577 2.621346
F -0.479245 -1.954785 -0.648330
