37

Ir -0.361239 -0.196749 0.051562
H -0.483610 -1.709941 0.971882
H -0.411786 -1.098629 1.669723
N -2.639883 -0.100508 0.147353
C -3.079190 1.142960 -0.538415
C -3.243392 -1.275269 -0.524724
C -3.106518 -0.055552 1.556697
H -2.922932 -1.308103 -1.581888
H -4.355898 -1.222670 -0.478968
H -2.899804 -2.202271 -0.029971
H -2.642316 0.808233 2.066474
H -2.803182 -0.983041 2.076538
H -4.216187 0.033994 1.591651
H -2.750361 1.119366 -1.593224
H -2.612487 2.012292 -0.040527
H -4.189236 1.233318 -0.499561
C 1.643724 -0.103651 0.024239
C 3.894813 -0.549338 0.519097
C 3.806746 0.761559 -0.275290
H 4.172557 -0.379136 1.585492
H 4.248389 0.676291 -1.295705
C 1.869109 2.204097 -0.958148
H 2.356112 2.372119 -1.943868
H 0.776450 2.122195 -1.090591
H 2.075328 3.070587 -0.295393
C 2.206333 -2.357351 0.980115
H 2.049790 -2.322421 2.082515
H 1.285336 -2.743307 0.505070
H 3.038914 -3.058111 0.767074
N 2.526577 -1.063363 0.426441
N 2.363058 0.978846 -0.368727
H 4.302773 1.612930 0.234994
H 4.621138 -1.271645 0.092251
C -0.381881 -0.399051 -1.810355
O -0.382432 -0.423945 -2.988638
C -0.365694 1.516051 1.209254
N -0.425241 2.538234 1.802082
