30

Ir 0.152842 0.097824 -0.182193
H 0.071315 0.078060 -1.909977
H 0.048747 -0.846567 -1.770979
N -2.006410 0.028461 -0.099037
C -2.760290 1.127082 -0.343207
C -4.159845 1.054808 -0.319124
N -4.824748 -0.081663 -0.059450
C -4.062928 -1.159344 0.186643
C -2.660937 -1.125664 0.173229
H -2.222156 2.063017 -0.552457
H -4.756987 1.960849 -0.522135
H -4.580904 -2.108401 0.408701
H -2.019419 -2.001009 0.385736
P 2.433335 0.035405 -0.127925
C 3.299717 1.571287 -0.649434
C 3.152268 -1.288440 -1.176696
C 3.080228 -0.317134 1.552747
H 3.042180 1.788453 -1.704215
H 4.398931 1.469225 -0.546339
H 2.937214 2.413364 -0.028278
H 2.886604 -1.100513 -2.235124
H 2.683272 -2.238392 -0.851856
H 4.254410 -1.334071 -1.067671
H 2.785594 0.507734 2.229622
H 4.182914 -0.430888 1.549443
H 2.585614 -1.249811 1.889630
C 0.174677 1.733577 0.686371
N 0.162714 2.886820 1.126737
H 0.193112 3.076585 2.137301
Cl 0.326027 -2.324912 0.652673
