54

Ir 1.104521 -0.199771 0.212167
H 1.100183 -0.003817 1.913003
H 1.175248 0.922207 1.625262
P -1.178353 -0.019422 0.095367
C -1.655178 -2.388249 1.524767
C -2.107744 -1.572313 0.466848
C -1.814241 0.493229 -1.553458
C -1.268736 -0.123505 -2.699479
C -1.750425 0.218079 -3.970289
C -2.762615 1.182137 -4.109374
C -3.298398 1.804812 -2.971228
C -2.827891 1.462494 -1.693528
C -1.898779 1.211768 1.268254
C -1.250253 2.456531 1.428653
C -1.800753 3.425542 2.280707
C -2.989790 3.163698 2.981711
C -3.632772 1.925637 2.827501
C -3.092675 0.951659 1.972065
C -3.258202 -1.944679 -0.256058
C -3.948305 -3.121709 0.078311
C -3.499241 -3.927688 1.136115
C -2.352544 -3.557624 1.860122
H -0.739089 -2.104830 2.067131
H -0.461706 -0.863388 -2.593513
H -1.317735 -0.262104 -4.861031
H -3.129282 1.455920 -5.110777
H -4.086265 2.566602 -3.075334
H -3.248177 1.955572 -0.804225
H -0.308963 2.670460 0.896647
H -1.289804 4.393454 2.398199
H -3.414791 3.926070 3.652846
H -4.562397 1.711787 3.377165
H -3.602757 -0.016159 1.854843
H -3.611134 -1.316493 -1.087941
H -4.841940 -3.410598 -0.496079
H -4.041420 -4.850313 1.395001
H -1.994836 -4.188452 2.688626
N 3.266557 -0.228635 0.263438
C 6.075586 -0.177490 0.384856
C 5.318947 0.945898 0.745635
C 3.923596 0.887589 0.670772
C 3.997182 -1.312620 -0.097616
C 5.394022 -1.323291 -0.051284
H 7.174712 -0.159386 0.435862
H 5.796462 1.878049 1.080089
H 3.289141 1.761177 0.892211
H 3.425671 -2.188082 -0.436671
H 5.933611 -2.230714 -0.358610
C 0.985835 -1.915748 -0.531590
N 0.889246 -2.968321 -1.170450
H 0.765251 -3.869456 -0.687391
N 1.345519 1.721276 -0.917664
O 1.182182 1.680969 -2.139005
O 1.716343 2.774154 -0.350294
