57

Ir 1.132150 0.183300 -0.189106
H 1.069830 1.166040 -1.565103
H 1.078126 0.298592 -2.021079
P -1.211804 0.027086 -0.031237
C -1.611303 2.763947 0.403296
C -2.116448 1.475142 0.674541
C -1.739737 -1.397994 1.017870
C -0.899039 -1.802705 2.073389
C -1.282855 -2.856620 2.915045
C -2.503038 -3.520230 2.705470
C -3.337940 -3.129458 1.646063
C -2.958255 -2.073949 0.801728
C -2.082641 -0.292906 -1.627095
C -1.648109 -1.412861 -2.371892
C -2.256517 -1.708331 -3.599296
C -3.289884 -0.893083 -4.095554
C -3.715646 0.222289 -3.357849
C -3.116904 0.524169 -2.122284
C -3.292224 1.341819 1.441526
C -3.956225 2.482277 1.920235
C -3.455635 3.763255 1.635787
C -2.282245 3.901370 0.876517
H -0.674940 2.862233 -0.167756
H 0.067608 -1.289919 2.203811
H -0.617747 -3.171037 3.734392
H -2.799935 -4.351988 3.363169
H -4.289850 -3.654065 1.469732
H -3.607511 -1.782088 -0.038272
H -0.822047 -2.019780 -1.955058
H -1.919941 -2.583525 -4.177164
H -3.764248 -1.128413 -5.061148
H -4.523001 0.864578 -3.742911
H -3.457659 1.397054 -1.544897
H -3.688592 0.341510 1.672289
H -4.870874 2.367484 2.522439
H -3.977407 4.656097 2.013987
H -1.877333 4.902138 0.660951
C 3.182625 0.002558 -0.193210
C 5.406415 0.420311 -0.451707
C 5.279929 -0.796147 0.166711
H 6.294460 0.978024 -0.763759
H 6.037391 -1.507414 0.509458
C 3.344331 -2.186649 1.004329
H 3.177645 -1.945158 2.074113
H 2.366922 -2.417805 0.505072
H 4.045526 -3.038994 0.925659
C 3.791083 2.166716 -1.281950
H 3.392926 2.009160 -2.304944
H 3.017151 2.682404 -0.682984
H 4.703535 2.788820 -1.336133
N 4.117568 0.895987 -0.654670
N 3.921739 -1.033150 0.317582
C 1.269272 1.253987 1.326785
N 1.396710 2.097532 2.219901
H 1.391523 1.828639 3.212020
O 0.927479 -1.983725 -0.651582
H 1.403990 -2.107194 -1.493915
