29

Ir -0.171333 -0.269692 -0.190272
H -0.262501 -0.470144 -1.882789
H -0.278636 0.506202 -1.809547
P 2.074126 -0.280183 -0.186374
C 5.195660 -0.324500 -0.221527
C 4.510833 -1.519515 0.062759
C 3.114395 -1.634554 0.104368
C 3.143356 1.045549 -0.500806
C 4.535141 0.889340 -0.487574
H 6.295998 -0.338389 -0.232760
H 5.106524 -2.426173 0.262712
H 2.637959 -2.600799 0.331947
H 2.673369 2.024768 -0.681107
H 5.149852 1.782037 -0.692832
N -2.336483 -0.278355 -0.183486
C -5.140047 -0.330752 -0.280526
C -4.450221 0.864987 -0.038913
C -3.051349 0.856807 0.004781
C -2.998537 -1.439506 -0.414484
C -4.394217 -1.503564 -0.469244
H -6.239870 -0.350482 -0.320094
H -4.982880 1.813862 0.119473
H -2.448531 1.763603 0.198092
H -2.371774 -2.331748 -0.553218
H -4.880879 -2.470873 -0.659595
C -0.178682 -1.739313 0.968800
N -0.211372 -2.792199 1.600486
H -0.198815 -2.828406 2.627967
Br -0.057202 2.325702 0.527241
