33

Ir 0.119882 0.140911 -0.239124
H 0.053700 -0.152464 -2.104532
H 0.053635 -0.978062 -1.963360
N -2.030757 -0.023757 -0.149874
C -2.821177 0.929845 -0.700592
C -4.217606 0.839072 -0.628980
N -4.848518 -0.174439 -0.016263
C -4.053936 -1.110007 0.527762
C -2.653562 -1.053385 0.471908
H -2.310424 1.766821 -1.198291
H -4.841447 1.625117 -1.089326
H -4.542283 -1.956016 1.041536
H -1.996664 -1.831118 0.899048
P 2.393683 0.229766 -0.121931
C 3.170179 1.866439 -0.465106
C 3.267732 -0.908215 -1.272778
C 3.043073 -0.212851 1.538110
H 2.895681 2.192501 -1.486998
H 4.273836 1.810465 -0.374943
H 2.776411 2.608175 0.256455
H 3.009763 -0.640151 -2.315889
H 2.902878 -1.933626 -1.066302
H 4.365898 -0.849334 -1.132393
H 2.644842 0.510990 2.275049
H 4.151703 -0.204558 1.555479
H 2.653319 -1.219942 1.785467
C 0.024954 1.837871 0.468297
N -0.036123 2.906801 1.058917
C -0.189423 4.291451 0.719148
H -1.077356 4.716464 1.232735
H -0.301495 4.458766 -0.375935
H 0.689690 4.871837 1.071693
Br 0.412816 -2.483830 0.372456
