39

Ir 0.133016 0.086139 -0.142898
H 0.199981 0.105634 -1.935278
H 0.223934 -0.773143 -1.878690
P -2.157792 0.024280 -0.069297
C -2.858564 0.345097 1.617978
C -2.960122 -1.572713 -0.564830
C -2.521951 -2.141469 -1.914531
C -3.040028 1.259581 -1.143891
C -2.556977 2.705047 -1.021912
C -2.193241 -0.457434 2.738449
H -2.737689 1.434956 1.796284
H -3.951228 0.146484 1.556404
H -2.699402 -2.288228 0.241055
H -4.055975 -1.385072 -0.527374
H -2.907842 0.893359 -2.184466
H -4.123884 1.169370 -0.910308
H -1.460988 -2.455090 -1.858767
H -3.127004 -3.036281 -2.165768
H -2.640925 -1.417313 -2.747009
H -2.653468 3.094689 0.011667
H -1.489036 2.788780 -1.304306
H -3.145988 3.370144 -1.685564
H -2.225896 -1.548431 2.549178
H -1.123502 -0.184626 2.827672
H -2.692228 -0.255110 3.707822
N 2.312207 0.046458 -0.125639
C 5.118785 0.034758 -0.124600
C 4.393497 -1.060097 0.365628
C 2.994266 -1.022491 0.350684
C 3.009185 1.108630 -0.598068
C 4.407263 1.139154 -0.616077
H 6.219516 0.029778 -0.122896
H 4.899951 -1.951298 0.763921
H 2.360570 -1.857561 0.702347
H 2.405598 1.951391 -0.965469
H 4.922685 2.026387 -1.011078
C 0.112038 1.675331 0.774287
O 0.095975 2.691557 1.372086
Cl 0.091137 -2.399632 0.465133
