36

Ir -0.183558 0.093764 -0.283516
H -0.234256 -0.469722 -1.929071
H -0.234798 -1.300600 -1.487431
P -2.538346 -0.064583 -0.086790
C -3.151422 0.397579 1.580281
C -3.231951 -1.740735 -0.379786
C -3.500207 1.014637 -1.229931
H -2.612458 -0.253211 2.295591
H -4.247053 0.252562 1.668512
H -2.892488 1.456258 1.775432
H -2.734770 -2.424876 0.334240
H -2.999309 -2.055787 -1.415691
H -4.329315 -1.753259 -0.222690
H -3.198573 2.068446 -1.070871
H -4.591361 0.910955 -1.061625
H -3.258775 0.742193 -2.275899
C 1.889460 0.152901 -0.182219
C 4.092702 -0.376476 -0.404939
C 4.009435 0.667532 0.475002
H 4.957545 -0.937019 -0.771283
H 4.787545 1.207569 1.021968
C 2.165182 2.003898 1.505690
H 1.928079 2.938117 0.960309
H 1.243390 1.640695 1.995249
H 2.937751 2.210654 2.269236
C 2.454389 -1.816889 -1.628321
H 1.821001 -2.504840 -1.035095
H 1.914265 -1.492267 -2.537870
H 3.386670 -2.331244 -1.924048
N 2.796985 -0.672799 -0.796988
N 2.662871 0.974085 0.603046
C -0.363744 1.942858 -0.242486
O -0.556654 3.106015 -0.210651
N -0.008770 -1.611556 1.137215
O 1.063041 -2.232783 1.228819
O -0.978210 -1.930187 1.854450
