35

Ir 0.114030 -0.173940 -0.218101
H 0.167087 -0.970666 -1.735208
H 0.170458 -1.737935 -1.136515
C -1.878181 -0.020838 -0.177925
C -4.021516 0.688564 0.211349
C -4.098822 -0.541934 -0.376257
H -4.805753 1.368536 0.556039
H -4.964534 -1.156187 -0.640016
C -2.469215 -2.279077 -1.126926
H -1.913221 -2.197525 -2.081219
H -1.845516 -2.814067 -0.381759
H -3.410049 -2.833370 -1.299815
C -2.201660 2.207780 0.974881
H -1.307677 1.975654 1.582903
H -1.925515 2.977460 0.227521
H -3.006193 2.600214 1.625448
N -2.671607 0.991402 0.334240
N -2.797295 -0.962578 -0.604996
N 2.277984 -0.407429 -0.114193
C 4.335882 -1.094482 0.468180
C 2.987012 -1.250642 0.719793
N 4.425360 -0.139779 -0.530200
C 3.163366 0.253620 -0.858399
H 5.283547 0.212904 -0.954043
H 5.219720 -1.569184 0.904894
H 2.435767 -1.880983 1.433522
H 2.918073 1.018250 -1.603255
C 0.432272 1.662792 -0.321063
N 0.811663 2.823489 -0.494175
C 1.029687 3.907616 0.427785
H 0.304724 4.729897 0.238028
H 2.041362 4.342454 0.280761
H 0.938191 3.600734 1.495529
S -0.160110 -1.909469 1.617293
H -0.514733 -1.057465 2.621043
