47

Ir 0.272112 -0.166415 -0.294389
H 0.204973 -0.769286 -2.050909
H 0.155054 -1.566400 -1.738268
P -2.059839 -0.141476 0.001002
C -2.616603 0.979182 1.375432
C -2.860328 -1.757039 0.438579
C -2.636090 -2.878569 -0.576641
C -3.083806 0.437511 -1.442510
C -2.671198 1.789867 -2.025791
C -1.922835 0.707675 2.711913
H -2.393113 2.009296 1.025548
H -3.722670 0.895754 1.458034
H -2.413469 -2.044263 1.412642
H -3.942005 -1.554427 0.600667
H -2.984574 -0.358174 -2.211398
H -4.148257 0.437916 -1.118362
H -1.554240 -3.098510 -0.670079
H -3.140509 -3.807965 -0.241825
H -3.036257 -2.629357 -1.581013
H -2.770160 2.610990 -1.287181
H -1.612540 1.773213 -2.351906
H -3.304122 2.049014 -2.899031
H -2.165476 -0.298812 3.108048
H -0.821376 0.749770 2.589284
H -2.228940 1.453532 3.473816
P 2.602320 -0.225881 -0.157344
C 3.217834 -0.071728 1.568961
C 3.527152 1.084184 -1.066551
C 3.368416 -1.791198 -0.747279
H 2.911664 0.915279 1.966410
H 4.320302 -0.178372 1.627541
H 2.716861 -0.860448 2.164143
H 3.154067 2.074501 -0.740029
H 3.318492 0.983648 -2.149490
H 4.619649 1.014538 -0.889076
H 2.893436 -2.620037 -0.186252
H 4.465995 -1.794962 -0.590098
H 3.144612 -1.919642 -1.824392
C 0.295189 1.718277 -0.220365
N 0.321941 2.930065 -0.044595
C 0.381269 3.793163 1.102355
H 0.467386 3.227376 2.058026
H -0.529192 4.427986 1.153520
H 1.246628 4.484547 1.022115
C 0.378582 -1.865442 0.878520
C 0.494129 -2.831818 1.649349
H 0.574039 -3.677215 2.318911
