30

Ir 0.299956 0.102766 0.148636
H 0.203983 0.140098 1.907665
H 0.213342 -0.764507 1.820505
N 2.478312 0.089222 0.189043
C 2.976200 -0.224465 -1.182787
C 3.022468 1.403088 0.623909
C 2.974748 -0.961910 1.124502
H 2.706311 2.192672 -0.080933
H 4.134322 1.361945 0.656573
H 2.630375 1.650366 1.627015
H 2.538958 -1.933062 0.823005
H 2.651933 -0.716875 2.152886
H 4.085614 -1.000227 1.089222
H 2.642640 0.563921 -1.881183
H 2.541072 -1.192661 -1.495124
H 4.087930 -0.274515 -1.177774
N -1.786318 0.033236 0.105645
C -4.597884 -0.050893 0.103670
C -3.841600 -1.153633 -0.316285
C -2.444834 -1.082081 -0.307504
C -2.516507 1.105856 0.511543
C -3.913726 1.099208 0.523028
H -5.697882 -0.084539 0.102519
H -4.321349 -2.081719 -0.659265
H -1.791656 -1.916352 -0.619970
H -1.937136 1.982874 0.831349
H -4.450075 1.997692 0.860337
C 0.280713 1.649035 -0.845070
O 0.248586 2.650609 -1.468228
Cl 0.482051 -2.388552 -0.536991
