35

Ir -0.192732 -0.077766 -0.290074
H -0.132837 -0.597400 -1.965329
H -0.074179 -1.437590 -1.557663
N -2.381193 -0.149465 -0.358376
C -2.923735 0.056420 1.014084
C -2.912872 0.907329 -1.259150
C -2.843164 -1.475139 -0.857745
H -2.601755 1.902264 -0.894287
H -4.024193 0.849725 -1.295176
H -2.501188 0.765897 -2.274885
H -2.416979 -2.255466 -0.200047
H -2.494712 -1.614776 -1.897430
H -3.954664 -1.520900 -0.837019
H -2.606341 1.047123 1.385262
H -2.518466 -0.739418 1.665099
H -4.035754 0.003982 0.995996
N 1.852619 -0.023927 -0.244161
C 4.129934 -0.057700 -0.862453
O 3.939834 -0.088231 0.584250
C 2.620686 -0.121073 0.794432
C 2.707517 0.136989 -1.433141
H 2.436433 -0.619660 -2.196712
H 2.534824 1.140457 -1.874354
H 4.592225 -1.021631 -1.157943
H 4.831438 0.766234 -1.095904
H 2.269661 -0.231309 1.827060
C -0.251851 1.746855 0.092862
N -0.266058 2.949498 0.340382
C -0.252416 3.714597 1.560298
H 0.615866 4.406830 1.566744
H -0.201663 3.077006 2.472035
H -1.162641 4.347974 1.623783
N -0.081765 -1.865238 1.056943
O 1.023708 -2.234054 1.487189
O -1.116609 -2.441107 1.452038
