68

Ir -0.948857 -0.227357 -0.399840
H -0.918765 -0.827390 -2.180067
H -0.928557 -1.635022 -1.919069
P -3.279948 -0.250830 -0.189141
C -3.882250 0.807671 1.214949
C -4.078918 -1.889584 0.151174
C -3.764688 -2.976254 -0.877700
C -4.267617 0.377378 -1.637278
C -3.826627 1.732736 -2.191095
C -3.160839 0.553576 2.540316
H -3.727306 1.856897 0.884986
H -4.980165 0.653715 1.304226
H -3.693741 -2.196370 1.145136
H -5.172136 -1.706243 0.242844
H -4.173505 -0.406292 -2.419018
H -5.335714 0.390018 -1.325814
H -2.675178 -3.176090 -0.897666
H -4.277308 -3.922353 -0.608934
H -4.093306 -2.701307 -1.901223
H -3.908296 2.540187 -1.435662
H -2.767777 1.700668 -2.514893
H -4.452240 2.022312 -3.059927
H -3.289994 -0.490090 2.890459
H -2.070636 0.718054 2.423715
H -3.543693 1.230556 3.331201
P 1.377133 -0.106365 -0.101102
C 2.002163 -2.779758 -0.649768
C 2.293581 -1.681641 0.184396
C 1.729360 0.896672 1.410465
C 1.106787 0.487964 2.612493
C 1.270875 1.248098 3.778176
C 2.034327 2.430341 3.753779
C 2.645312 2.840851 2.559743
C 2.500374 2.073901 1.389520
C 2.385418 0.706499 -1.425647
C 1.750205 1.556501 -2.353920
C 2.501562 2.205137 -3.346827
C 3.888918 2.006323 -3.427023
C 4.526072 1.153712 -2.509841
C 3.780237 0.505353 -1.514060
C 3.285889 -1.807782 1.176155
C 3.983552 -3.018131 1.324908
C 3.697991 -4.104756 0.484243
C 2.706440 -3.982130 -0.504123
H 1.204572 -2.693006 -1.403114
H 0.481856 -0.421121 2.614159
H 0.787398 0.921736 4.712074
H 2.150931 3.031628 4.668792
H 3.242356 3.765738 2.533315
H 2.980658 2.401811 0.455443
H 0.660536 1.699178 -2.290580
H 1.995220 2.866959 -4.066381
H 4.475764 2.511586 -4.209796
H 5.612679 0.987290 -2.572241
H 4.285491 -0.167871 -0.804776
H 3.509105 -0.960892 1.842770
H 4.753726 -3.110332 2.106330
H 4.243925 -5.053395 0.603736
H 2.468955 -4.835564 -1.157619
C -0.982607 1.660177 -0.301398
N -0.967992 2.857529 -0.062512
C -0.868768 3.694494 1.100443
H -1.745002 4.373937 1.162019
H 0.036878 4.332461 1.031939
H -0.801956 3.103354 2.040289
C -0.907269 -1.904232 0.792418
C -0.872842 -2.838315 1.608454
H -0.814402 -3.671850 2.294524
