54

Ir 1.389201 -0.112460 0.196781
H 1.363699 -0.329050 1.960353
H 1.374037 0.603603 1.893537
P -0.891452 -0.002835 0.028674
C -1.263269 -2.590822 1.057081
C -1.761452 -1.628492 0.153307
C -1.528069 0.734376 -1.534303
C -0.781626 0.578397 -2.718764
C -1.274391 1.086869 -3.928941
C -2.505690 1.761597 -3.963149
C -3.246368 1.929226 -2.782017
C -2.761543 1.417971 -1.568130
C -1.666868 1.023152 1.352419
C -1.272357 2.375322 1.469750
C -1.841356 3.182302 2.464777
C -2.795279 2.653197 3.351459
C -3.185226 1.310363 3.237202
C -2.626602 0.494780 2.238871
C -2.916239 -1.919244 -0.601145
C -3.564504 -3.155114 -0.447831
C -3.071134 -4.105245 0.460088
C -1.919875 -3.820136 1.212758
H -0.343801 -2.372954 1.622647
H 0.198156 0.078397 -2.674083
H -0.683349 0.968059 -4.849732
H -2.884705 2.169455 -4.912908
H -4.205762 2.468687 -2.801973
H -3.339637 1.560628 -0.642210
H -0.516815 2.792370 0.784477
H -1.531632 4.235308 2.548532
H -3.235226 3.290620 4.133982
H -3.932326 0.889473 3.927656
H -2.941959 -0.555526 2.151409
H -3.307734 -1.182451 -1.317946
H -4.460388 -3.376751 -1.047917
H -3.580512 -5.074330 0.575886
H -1.522667 -4.564510 1.919773
N 3.664195 -0.035740 0.263449
C 4.168985 0.167114 -1.120468
C 4.117382 1.098233 1.110267
C 4.211185 -1.299346 0.813169
H 3.692687 2.039775 0.717614
H 5.229388 1.152970 1.109454
H 3.763131 0.949882 2.146904
H 3.905560 -2.149741 0.177413
H 3.812170 -1.463895 1.830783
H 5.323574 -1.253320 0.854869
H 3.748139 1.105944 -1.523729
H 3.843168 -0.672890 -1.760131
H 5.281739 0.220313 -1.117305
C 1.440971 -1.733782 -0.753325
O 1.503905 -2.699746 -1.421619
C 1.470648 1.840547 -0.454690
N 1.587113 2.944634 -0.864442
