38

Ir 0.516486 -0.135368 -0.298213
H 0.676272 -0.065258 -2.033137
H 0.123097 -0.799164 -2.032131
As -1.392906 1.288051 -0.242737
C -2.265163 1.353888 1.501724
C -2.852764 0.775685 -1.434578
C -1.086917 3.175047 -0.661763
H -2.667074 0.344485 1.721806
H -3.089847 2.093128 1.491083
H -1.509129 1.629750 2.260453
H -3.243627 -0.204183 -1.093556
H -2.464949 0.684883 -2.466671
H -3.658535 1.534423 -1.395195
H -0.339846 3.571424 0.051994
H -2.029209 3.751647 -0.583131
H -0.678175 3.252332 -1.687038
N 2.199451 -1.619140 -0.111537
C 2.245210 -2.042118 1.312142
C 1.924240 -2.805025 -0.960045
C 3.498064 -1.024480 -0.501455
H 0.926895 -3.205405 -0.701303
H 2.704205 -3.583228 -0.799636
H 1.924933 -2.504985 -2.024222
H 3.713432 -0.151457 0.140662
H 3.447954 -0.683270 -1.551860
H 4.317162 -1.772492 -0.393548
H 1.259451 -2.456804 1.591580
H 2.454262 -1.163748 1.949254
H 3.037872 -2.811048 1.460678
C 1.453889 1.148791 0.655813
N 2.038130 1.967643 1.358740
C 2.911632 3.081956 1.108506
H 2.468636 4.014381 1.518761
H 3.115844 3.237562 0.025043
H 3.880185 2.935811 1.631905
N -0.812270 -1.786660 0.205332
C -1.939725 -2.080062 0.509024
S -3.467582 -2.447884 0.909187
