56

Ir 0.000274 -0.083976 0.273614
H 0.033935 -0.794661 1.944838
H 0.022463 -1.572702 1.562168
P 2.352259 -0.026929 0.135461
C 2.948708 0.920482 -1.345186
C 3.239300 -1.651802 -0.024446
C 3.075452 -2.606904 1.159586
C 3.241385 0.772519 1.559374
C 2.797175 2.195804 1.898364
C 2.392946 0.386384 -2.668014
H 2.616725 1.966794 -1.178081
H 4.060903 0.923380 -1.331479
H 2.839553 -2.128411 -0.942667
H 4.308545 -1.405800 -0.209878
H 3.068849 0.100510 2.426578
H 4.329433 0.726413 1.330981
H 2.016187 -2.912117 1.256430
H 3.670706 -3.526921 0.989519
H 3.419147 -2.164318 2.116846
H 2.967961 2.898626 1.058187
H 1.715779 2.227992 2.134885
H 3.360393 2.579014 2.773554
H 2.773026 -0.629526 -2.897195
H 1.286613 0.315095 -2.634690
H 2.680674 1.047899 -3.510277
P -2.353676 -0.085162 0.210219
C -3.186814 -1.480775 1.113255
C -3.069650 -0.180411 -1.496987
C -2.547264 0.898213 -2.447051
C -3.162429 1.417865 0.941256
C -2.758854 1.698857 2.389694
C -2.832276 -2.883026 0.612764
H -2.893557 -1.361424 2.177982
H -4.282562 -1.295529 1.059249
H -2.777974 -1.178261 -1.882883
H -4.177261 -0.155563 -1.398514
H -2.858242 2.264698 0.291630
H -4.262279 1.296486 0.831960
H -1.448510 0.801724 -2.550188
H -2.998835 0.779670 -3.452675
H -2.779588 1.924655 -2.095321
H -3.083284 0.891083 3.077273
H -1.657299 1.794552 2.471222
H -3.216430 2.643039 2.748482
H -3.154179 -3.041499 -0.436036
H -1.741297 -3.073815 0.649631
H -3.335589 -3.651882 1.233366
C -0.018606 1.766005 0.050753
N -0.054250 2.972522 -0.176068
C -0.102153 3.738337 -1.396278
H 0.741817 4.459429 -1.427464
H -1.035764 4.339168 -1.434348
H -0.058840 3.100216 -2.307288
N -0.005629 -1.875192 -1.012260
O 0.422221 -2.980496 -0.625949
O -0.401402 -1.728388 -2.181984
