59

Ir 1.092798 0.216746 -0.047199
H 0.954817 1.479481 -1.225036
H 1.027789 0.679436 -1.781029
P -1.269268 0.038608 -0.033668
C -1.599128 2.613528 1.043863
C -2.179693 1.334739 0.922045
C -1.916420 -1.543397 0.663839
C -1.213901 -2.142969 1.728004
C -1.695800 -3.320488 2.316272
C -2.874944 -3.916623 1.839123
C -3.571665 -3.330200 0.770922
C -3.096565 -2.146644 0.183426
C -2.037479 0.115038 -1.711573
C -1.631261 -0.840176 -2.671447
C -2.176496 -0.805950 -3.962589
C -3.116460 0.178931 -4.313154
C -3.514654 1.131698 -3.363401
C -2.980816 1.100497 -2.063890
C -3.445158 1.091383 1.496026
C -4.121728 2.117842 2.172831
C -3.543774 3.393501 2.281195
C -2.282103 3.638614 1.715841
H -0.596670 2.786704 0.621942
H -0.274255 -1.683799 2.071607
H -1.137994 -3.785939 3.143429
H -3.245696 -4.848071 2.294144
H -4.489571 -3.799873 0.385011
H -3.639831 -1.697092 -0.661844
H -0.884409 -1.606402 -2.406428
H -1.858207 -1.556000 -4.702960
H -3.538085 0.203481 -5.330027
H -4.249108 1.907206 -3.630837
H -3.301540 1.847769 -1.322723
H -3.902878 0.093535 1.420144
H -5.106766 1.917098 2.621874
H -4.075475 4.196267 2.815269
H -1.818089 4.632636 1.808079
C 3.157784 0.190308 -0.076224
C 5.400938 0.702034 -0.569154
C 5.328721 -0.681487 0.093615
H 5.915587 0.685476 -1.552646
H 6.007578 -0.785424 0.965760
C 3.468015 -1.948422 1.204717
H 4.162713 -2.164905 2.043177
H 2.452906 -1.762687 1.596627
H 3.410338 -2.826491 0.526307
C 3.629310 2.314968 -1.329398
H 3.614034 2.250177 -2.439785
H 2.628823 2.623397 -0.974476
H 4.366912 3.092057 -1.035436
N 3.985775 1.055880 -0.717913
N 3.925049 -0.765640 0.505051
H 5.563932 -1.506651 -0.617214
H 5.916526 1.458394 0.067142
C 1.136365 0.749426 1.762753
N 1.173561 1.154615 2.924600
H 1.197743 0.516827 3.731050
C 1.154409 -1.690704 -0.857880
N 1.219533 -2.794549 -1.275506
