54

Ir 1.164394 -0.041797 0.167576
H 1.194867 -0.288761 1.893272
H 1.216931 0.684274 1.819507
P -1.114539 -0.005972 0.064430
C -1.389048 -2.659562 0.947550
C -1.920687 -1.672178 0.091499
C -1.826596 0.787448 -1.440130
C -1.169479 0.602115 -2.673609
C -1.714927 1.147876 -3.844050
C -2.906756 1.890399 -3.791927
C -3.557174 2.083991 -2.563158
C -3.021553 1.532630 -1.387799
C -1.923255 0.883690 1.466844
C -1.463486 2.180256 1.787869
C -2.065176 2.894046 2.834096
C -3.117283 2.324492 3.571780
C -3.572427 1.035212 3.256107
C -2.980987 0.314969 2.204804
C -3.052910 -1.972044 -0.691727
C -3.645507 -3.243485 -0.616902
C -3.118440 -4.219783 0.242719
C -1.989960 -3.924133 1.026696
H -0.486188 -2.427553 1.534562
H -0.224254 0.039263 -2.705928
H -1.196205 1.001843 -4.803927
H -3.326375 2.325970 -4.712062
H -4.486810 2.671942 -2.515017
H -3.531700 1.690752 -0.425412
H -0.634837 2.621281 1.208765
H -1.703831 3.905210 3.077418
H -3.582231 2.887042 4.396291
H -4.394797 0.581770 3.830846
H -3.345315 -0.694119 1.961178
H -3.470151 -1.212155 -1.369194
H -4.524665 -3.471233 -1.239241
H -3.584577 -5.215731 0.298719
H -1.569949 -4.687231 1.700308
N 3.345790 -0.031493 0.184404
C 6.152955 -0.063418 0.246733
C 5.414631 -1.198549 0.611568
C 4.017603 -1.143960 0.566627
C 4.054547 1.065820 -0.173004
C 5.453913 1.084467 -0.151860
H 7.253317 -0.074940 0.271333
H 5.908462 -2.127756 0.930512
H 3.389934 -2.004332 0.840046
H 3.447019 1.935258 -0.476317
H 5.981190 2.001823 -0.451468
C 1.193821 -1.552725 -0.962283
N 1.198653 -2.389893 -1.869382
H 1.195158 -3.396362 -1.651501
C 1.138821 1.943057 -0.424821
C 1.115664 3.111712 -0.841741
H 1.085868 4.117331 -1.238933
