46

Ir 0.391939 -0.185067 -0.210685
H 0.410614 -0.545764 -2.066100
H 0.423035 -1.380941 -1.939207
P -1.870856 -0.091195 -0.009821
C -2.442955 0.710773 1.562816
C -2.761282 -1.719611 0.003373
C -2.509683 -2.610565 -1.213698
C -2.788420 0.848280 -1.329649
C -2.316856 2.282196 -1.571580
C -1.818339 0.109123 2.823569
H -2.164171 1.781628 1.471697
H -3.553688 0.656942 1.580132
H -2.414949 -2.236133 0.921818
H -3.842084 -1.487876 0.127311
H -2.674274 0.244077 -2.254627
H -3.866604 0.815316 -1.057784
H -1.439866 -2.890714 -1.273292
H -3.095540 -3.548150 -1.129787
H -2.799597 -2.122359 -2.167032
H -2.424786 2.914162 -0.666376
H -1.248204 2.298612 -1.864009
H -2.907745 2.757410 -2.380944
H -2.069738 -0.963560 2.944464
H -0.713626 0.181650 2.777088
H -2.172252 0.645121 3.727424
N 2.673147 -0.338439 -0.156111
C 3.299998 0.763377 -0.920373
C 3.075931 -0.250873 1.270827
C 3.134868 -1.633981 -0.713167
H 2.728024 0.709765 1.692652
H 4.184952 -0.320140 1.364438
H 2.600513 -1.077036 1.830416
H 2.841485 -1.703648 -1.777260
H 2.659046 -2.462782 -0.158444
H 4.243535 -1.712360 -0.636872
H 2.990631 1.734982 -0.495310
H 2.965979 0.720655 -1.973728
H 4.411332 0.682490 -0.882668
C 0.480309 1.638942 0.212381
N 0.542587 2.729871 0.771309
C 0.603707 4.095398 0.327946
H -0.296930 4.647604 0.671903
H 0.669140 4.191607 -0.779412
H 1.480285 4.607021 0.778121
C 0.355155 -2.042576 0.668777
N 0.367756 -3.057487 1.278813
