38

Ir -0.142820 0.294545 -0.138034
H -0.181530 0.414167 -1.970440
H -0.216253 -0.445378 -1.977444
N -2.316080 0.258611 -0.141388
C -3.011198 1.281447 -0.693117
C -4.412750 1.277309 -0.698202
N -5.135430 0.284545 -0.157048
C -4.433042 -0.717808 0.392250
C -3.029886 -0.749819 0.408964
H -2.422376 2.104094 -1.124681
H -4.961372 2.117350 -1.158292
H -5.000515 -1.546985 0.848887
H -2.445195 -1.585138 0.832236
P 2.153541 0.249396 -0.063501
C 2.956339 1.906596 0.189832
C 2.990847 -0.350936 -1.611723
C 2.798688 -1.825085 -1.969446
C 2.871538 -0.782649 1.295049
C 2.307663 -0.455565 2.678922
C 2.637632 2.944129 -0.888379
H 2.611960 2.262697 1.183042
H 4.050505 1.727988 0.272323
H 2.604800 0.304425 -2.420872
H 4.069237 -0.104836 -1.491547
H 2.620475 -1.828952 1.025266
H 3.976522 -0.664669 1.249727
H 1.726995 -2.102256 -2.018657
H 3.267548 -2.042706 -2.950661
H 3.265925 -2.493786 -1.219611
H 2.485297 0.599186 2.973314
H 1.214785 -0.638316 2.696162
H 2.777720 -1.100471 3.448534
H 3.035318 2.648320 -1.880342
H 1.542993 3.085933 -0.991124
H 3.086140 3.924661 -0.630399
C -0.155731 1.813938 0.884925
O -0.166985 2.782162 1.555329
Br -0.115403 -2.376142 0.188506
