50

Ir 1.137432 0.151081 0.171827
H 1.117352 0.546780 1.821865
H 1.141762 -0.421358 1.921403
N 3.274204 0.037559 0.160463
C 4.093644 1.096572 0.355872
C 5.485222 0.929556 0.340373
N 6.071217 -0.259976 0.135941
C 5.239876 -1.297141 -0.059788
C 3.843877 -1.173757 -0.052174
H 3.616972 2.073753 0.521730
H 6.141909 1.802106 0.501734
H 5.696487 -2.286802 -0.233615
H 3.117575 -1.996874 -0.208973
P -1.158071 -0.001671 0.048162
C -2.210991 2.516176 -0.698549
C -1.979086 1.612985 0.360217
C -1.899864 -1.213802 1.223790
C -1.151155 -2.372352 1.526818
C -1.711839 -3.357022 2.355181
C -3.005904 -3.198851 2.877613
C -3.756197 -2.056010 2.555791
C -3.210368 -1.066027 1.724160
C -1.766328 -0.625748 -1.574694
C -0.932945 -1.522059 -2.278584
C -1.385460 -2.078533 -3.484922
C -2.654735 -1.751936 -3.989888
C -3.490441 -0.878485 -3.274609
C -3.053648 -0.320509 -2.063334
C -2.213163 2.031449 1.688071
C -2.706440 3.318350 1.946914
C -2.957311 4.205460 0.887242
C -2.702104 3.803470 -0.433033
H -1.993729 2.220407 -1.735548
H -0.151271 -2.499611 1.068804
H -1.128615 -4.260756 2.590464
H -3.436585 -3.972948 3.531617
H -4.775926 -1.932870 2.952154
H -3.809377 -0.178729 1.468659
H 0.040246 -1.806801 -1.836223
H -0.736964 -2.778808 -4.033758
H -2.999866 -2.186871 -4.940754
H -4.491768 -0.630581 -3.659285
H -3.719274 0.353063 -1.502199
H -2.001832 1.349357 2.525747
H -2.890588 3.631422 2.986046
H -3.343111 5.215784 1.092359
H -2.878876 4.498955 -1.267553
C 1.110670 1.677995 -0.874959
O 1.106504 2.693364 -1.467929
F 1.232497 -2.001720 -0.243800
