31

Ir -0.104050 0.099076 -0.176468
H -0.200373 0.395325 -1.892112
H -0.174348 -0.579217 -1.854707
N -2.247812 -0.010724 -0.080111
C -2.896581 -1.177554 0.159464
C -4.297272 -1.227568 0.163652
N -5.072878 -0.153607 -0.053966
C -4.417221 0.995583 -0.281221
C -3.019680 1.082614 -0.302433
H -2.257850 -2.054591 0.352911
H -4.802818 -2.189669 0.356336
H -5.021195 1.902019 -0.460412
H -2.494154 2.027325 -0.502180
As 2.283400 -0.030156 -0.095601
C 3.255636 1.589754 -0.604940
C 3.052007 -1.411049 -1.237931
C 2.996735 -0.439506 1.671650
H 2.993658 1.848925 -1.648265
H 4.348941 1.437888 -0.514186
H 2.930990 2.414391 0.058163
H 2.794658 -1.186097 -2.290305
H 2.582843 -2.369120 -0.944630
H 4.151482 -1.454301 -1.113987
H 2.715691 0.381025 2.358500
H 4.097799 -0.552488 1.636761
H 2.510407 -1.375063 2.006250
C -0.052371 1.756948 0.726947
O 0.026291 2.764713 1.328295
C 0.056506 -1.857884 0.489313
C 0.194113 -3.015644 0.916119
H 0.287184 -4.021610 1.303236
