42

Ir -0.195886 -0.265304 -0.223746
H -0.224210 -1.369672 -1.617400
H -0.164462 -1.986782 -0.941555
P -2.543029 -0.254753 -0.130966
C -3.188004 0.564972 1.384906
C -3.331885 -1.916417 -0.082062
C -3.424436 0.615816 -1.496389
H -2.716122 0.060083 2.250872
H -4.293395 0.508346 1.453165
H -2.864170 1.624002 1.376800
H -2.882244 -2.465087 0.769145
H -3.091826 -2.458739 -1.017510
H -4.431947 -1.847959 0.038514
H -3.031810 1.649743 -1.560733
H -4.522014 0.636066 -1.338059
H -3.194548 0.105930 -2.452260
C 1.860892 -0.210401 -0.070848
C 4.144062 -0.558792 -0.500219
C 3.994990 0.259668 0.787395
H 4.478439 -1.604056 -0.298460
H 4.319383 1.319680 0.655542
C 1.999174 0.836844 2.200305
H 2.066955 1.947071 2.125780
H 0.941929 0.532837 2.309167
H 2.561924 0.508695 3.098687
C 2.491311 -1.133317 -2.312202
H 2.449424 -2.246367 -2.278072
H 1.516712 -0.752886 -2.671595
H 3.282504 -0.835295 -3.030570
N 2.775166 -0.553077 -1.021759
N 2.551366 0.199375 1.025677
H 4.560695 -0.161665 1.643659
H 4.852739 -0.111246 -1.227317
C -0.205485 1.585215 -0.581962
N -0.235916 2.803685 -0.739246
C -0.271065 3.894451 0.201494
H -1.157026 4.537300 0.012008
H 0.622366 4.542385 0.072210
H -0.305658 3.551819 1.261674
C -0.339974 -1.358942 1.535095
C -0.493731 -1.934426 2.624204
H -0.594416 -2.452422 3.568261
