31

Ir -0.167333 -0.121558 -0.249248
H -0.248456 -0.213629 -1.966150
H -0.261222 -1.144695 -1.755358
N -2.309855 -0.172611 -0.166034
C -3.050262 0.820809 -0.714799
C -4.449648 0.783729 -0.661235
N -5.127211 -0.214355 -0.073422
C -4.378431 -1.188922 0.465970
C -2.975936 -1.188732 0.431971
H -2.498466 1.640948 -1.195864
H -5.035733 1.600876 -1.116630
H -4.907112 -2.023290 0.958207
H -2.340184 -1.986781 0.861232
P 2.076604 -0.107435 -0.175173
C 5.196841 -0.096006 -0.037030
C 4.534318 1.109507 -0.328195
C 3.141085 1.237391 -0.421492
C 3.122355 -1.446002 0.165641
C 4.514812 -1.305196 0.196303
H 6.296235 -0.093502 0.012185
H 5.145984 2.011934 -0.496714
H 2.686753 2.212059 -0.657654
H 2.623074 -2.404792 0.376086
H 5.112750 -2.204049 0.423483
C -0.195998 1.573568 0.572802
N -0.233122 2.638677 1.152815
C -0.290706 4.048097 0.928973
H -0.335795 4.306944 -0.152929
H 0.600601 4.539863 1.371807
H -1.179949 4.479924 1.433677
Cl -0.073066 -2.447162 0.808080
