63

Ir 1.037348 0.025429 -0.281149
H 0.915273 -0.237195 -2.091835
H 0.997547 -1.076182 -1.915155
P -1.327232 -0.105804 -0.083964
C -1.724332 2.398828 -1.293089
C -2.166339 1.536296 -0.266750
C -1.911151 -0.683612 1.566089
C -1.220133 -0.218098 2.704021
C -1.650580 -0.587519 3.985862
C -2.764868 -1.429313 4.142464
C -3.452530 -1.895071 3.010904
C -3.031231 -1.521492 1.724381
C -2.231772 -1.164187 -1.302226
C -1.843708 -2.517022 -1.432791
C -2.487361 -3.343433 -2.365129
C -3.514672 -2.835200 -3.178235
C -3.902953 -1.492988 -3.049604
C -3.268269 -0.659021 -2.114160
C -3.218063 1.950093 0.574163
C -3.817335 3.207703 0.390558
C -3.379101 4.057554 -0.637281
C -2.332541 3.648326 -1.481588
H -0.880887 2.086049 -1.928502
H -0.342342 0.434142 2.573711
H -1.105639 -0.222347 4.870119
H -3.095119 -1.726647 5.149825
H -4.323170 -2.558873 3.127513
H -3.570496 -1.892521 0.839802
H -1.047614 -2.915060 -0.783484
H -2.180356 -4.396938 -2.455536
H -4.014167 -3.487048 -3.911746
H -4.709370 -1.086830 -3.679835
H -3.584348 0.390227 -2.018741
H -3.566344 1.289061 1.381943
H -4.633700 3.523798 1.058308
H -3.850707 5.042365 -0.778852
H -1.979454 4.312060 -2.286112
C 3.087261 0.085768 -0.216786
C 5.349362 0.172230 -0.835227
C 5.225680 -0.386507 0.588840
H 5.931078 -0.486860 -1.512279
H 5.899732 0.107734 1.318186
C 3.300550 -0.542084 2.190567
H 3.868487 -0.037835 2.999836
H 2.234203 -0.254619 2.248211
H 3.372161 -1.644525 2.311870
C 3.614869 0.719692 -2.578825
H 3.768145 -0.073744 -3.342935
H 2.556457 1.038338 -2.593191
H 4.251598 1.590932 -2.848981
N 3.946780 0.258055 -1.252595
N 3.817991 -0.132336 0.903296
H 5.415128 -1.484118 0.625389
H 5.817119 1.184841 -0.861804
C 0.956096 1.731469 0.459012
N 0.865362 2.746308 1.137964
C 0.621435 4.134793 0.861912
H -0.432591 4.385629 1.108587
H 0.792369 4.398947 -0.205884
H 1.270478 4.774615 1.494971
N 1.268801 -2.102242 0.323128
O 0.310592 -2.711896 0.838008
O 2.381505 -2.655614 0.230683
