32

Ir -0.218170 -0.094813 0.296256
H -0.257531 -0.628774 1.942300
H -0.278164 -1.470694 1.542484
As 2.151107 -0.142025 0.125466
C 2.760675 -0.012875 -1.725301
C 2.963823 -1.810995 0.731961
C 3.178123 1.251928 1.040527
H 2.215967 -0.804610 -2.275364
H 3.856876 -0.150903 -1.801565
H 2.466980 0.976559 -2.124083
H 2.441424 -2.615410 0.178509
H 2.776532 -1.930367 1.816058
H 4.051813 -1.826033 0.526505
H 2.788910 2.235710 0.715328
H 4.257820 1.170342 0.807519
H 3.017180 1.153848 2.130963
N -2.345940 -0.180284 0.208577
C -4.537833 0.261166 0.431308
C -3.265674 0.704679 0.737550
N -4.359310 -0.904816 -0.291085
C -3.026621 -1.145623 -0.411852
H -5.097598 -1.493603 -0.676929
H -5.527738 0.666008 0.661447
H -2.944029 1.593663 1.288991
H -2.543800 -1.980895 -0.942115
C -0.233513 1.727334 -0.058218
N -0.257432 2.948529 -0.175029
C -0.257939 3.847477 -1.297245
H 0.597209 4.552874 -1.224445
H -1.180143 4.466866 -1.292599
H -0.196991 3.319744 -2.275899
Cl -0.081153 -2.189967 -1.225812
