30

Ir -0.172255 0.109049 -0.208324
H -0.127607 0.260550 -1.891587
H -0.068515 -0.723899 -1.846402
P -2.414465 -0.244382 -0.011094
C -2.792599 -0.716381 1.719200
C -2.933554 -1.707355 -0.986155
C -3.586487 1.102958 -0.439126
H -2.053968 -1.511296 1.948089
H -3.831576 -1.084877 1.835303
H -2.613499 0.150238 2.383757
H -2.221815 -2.502719 -0.686462
H -2.811783 -1.498140 -2.066340
H -3.979261 -2.003013 -0.767397
H -3.343081 1.994250 0.171978
H -4.636701 0.799004 -0.254599
H -3.457657 1.369490 -1.506190
N 1.969901 -0.020820 -0.090392
C 4.735185 -0.384112 0.133297
C 3.843750 -1.403769 0.501572
C 2.466832 -1.192758 0.379028
C 2.820935 0.969560 -0.444911
C 4.209051 0.824212 -0.347133
H 5.823011 -0.527558 0.220577
H 4.206307 -2.367935 0.886867
H 1.682788 -1.932201 0.643242
H 2.355164 1.896063 -0.812042
H 4.862082 1.656802 -0.646144
C -0.277279 1.788411 0.558185
O -0.367485 2.888397 0.972470
F -0.229746 -1.927976 0.555995
