40

Ir 0.275620 -0.161079 -0.274996
H 0.294889 -0.924299 -1.801539
H 0.221639 -1.707520 -1.200631
C -1.708314 0.120749 -0.228527
C -3.788295 0.908377 0.287592
C -3.951365 -0.196991 -0.498425
H -4.522686 1.574498 0.749132
H -4.857667 -0.696527 -0.852395
C -2.445727 -1.920520 -1.496252
H -1.841939 -1.761479 -2.409882
H -1.915147 -2.608373 -0.809083
H -3.421442 -2.356594 -1.777708
C -1.869130 2.133363 1.296140
H -0.922951 1.773512 1.738203
H -1.664960 3.054233 0.714336
H -2.593210 2.362074 2.100950
N -2.421530 1.086639 0.450548
N -2.682646 -0.663055 -0.805979
N 2.535865 -0.509405 -0.192172
C 2.842977 -1.961356 -0.186898
C 3.201931 0.122186 -1.354566
C 3.047296 0.086698 1.068449
H 2.818021 -0.326711 -2.289578
H 4.304784 -0.031188 -1.300194
H 2.979182 1.204355 -1.373856
H 2.500452 -0.379201 1.910090
H 2.863570 1.176206 1.060147
H 4.141426 -0.101140 1.170670
H 2.480000 -2.419625 -1.125428
H 2.335186 -2.426334 0.677270
H 3.942666 -2.121578 -0.107059
C 0.616172 1.675816 -0.407744
N 0.948851 2.846951 -0.576232
C 1.179821 3.958478 0.306870
H 2.182489 4.396245 0.117249
H 1.118869 3.682816 1.384878
H 0.441452 4.765693 0.109841
N -0.074621 -1.587433 1.389524
O 0.834690 -1.867620 2.196843
O -1.209813 -2.070215 1.541855
