26

Ir 0.005800 0.138716 -0.185967
H 0.048443 0.006200 -1.916006
H -0.023115 -0.908086 -1.714650
N -2.044392 0.140693 -0.202268
C -4.242842 -0.723016 -0.222820
O -4.194363 0.679064 0.196887
C -2.901090 1.010067 0.234109
C -2.809906 -1.032256 -0.689264
H -2.700254 -1.088556 -1.793091
H -2.363361 -1.944297 -0.240792
H -5.014454 -0.815249 -1.010324
H -4.548965 -1.319415 0.661647
H -2.645492 2.003076 0.630378
N 2.061904 -0.054040 -0.126058
C 4.392569 0.340414 -0.256814
O 4.067788 -1.015637 0.180533
C 2.737555 -1.103092 0.228095
C 3.018629 1.005486 -0.501000
H 2.846054 1.299629 -1.555954
H 2.840817 1.901133 0.127835
H 5.022135 0.259702 -1.164733
H 4.983777 0.819889 0.548657
H 2.253516 -2.036640 0.568057
C 0.076550 1.797506 0.620518
O 0.099444 2.874294 1.101994
Cl -0.157648 -2.208087 0.892027
