34

Ir 0.084549 -0.206488 -0.193286
H 0.030360 -0.304780 -1.933611
H 0.155036 0.612330 -1.890758
N 2.260090 -0.260458 -0.316225
C 4.341192 -0.916997 -0.871877
C 2.996815 -1.193077 -1.022873
N 4.396643 0.196112 -0.056175
C 3.129416 0.569946 0.264743
H 5.241592 0.670393 0.263588
H 5.236734 -1.407524 -1.264005
H 2.507511 -1.997405 -1.580663
H 2.890366 1.427860 0.904901
C -1.910079 -0.032162 -0.131764
C -4.187669 -0.305038 0.375603
C -4.033533 0.849292 -0.609580
H -4.966122 -1.036053 0.077093
H -4.574724 1.766914 -0.301955
C -2.055585 2.166357 -1.377719
H -2.715273 3.046031 -1.234557
H -1.045353 2.422138 -1.004382
H -2.022589 1.927836 -2.466345
C -2.614694 -2.115058 1.103951
H -3.590322 -2.601823 1.295285
H -1.985941 -2.824888 0.536340
H -2.122408 -1.914401 2.079614
N -2.852361 -0.906178 0.343841
N -2.586851 1.063170 -0.602276
H -4.379964 0.575882 -1.636079
H -4.428836 0.053908 1.404950
C 0.235918 -1.828568 0.672958
O 0.528582 -2.853314 1.178754
N 0.303427 1.844612 0.507910
C 0.961563 2.557673 1.227278
O 1.650544 3.279333 1.909965
