29

Ir 0.032917 0.175561 -0.195332
H 0.095084 0.235367 -1.905011
H -0.005228 -0.744255 -1.751444
N -2.011687 0.313096 -0.235014
C -4.252308 -0.342884 -0.554889
O -4.124169 0.772860 0.386117
C -2.814002 0.975638 0.534532
C -2.843886 -0.496966 -1.151896
H -2.741978 -0.083863 -2.178336
H -2.482990 -1.541003 -1.125494
H -5.041520 -0.082870 -1.284854
H -4.560347 -1.230936 0.033656
H -2.494429 1.704989 1.291572
N 2.098532 -0.016174 -0.166437
C 4.409173 0.455653 -0.348661
O 4.139189 -0.918883 0.070110
C 2.813622 -1.045293 0.162178
C 3.010955 1.066497 -0.588873
H 2.810188 1.318028 -1.650288
H 2.808384 1.975984 0.010666
H 5.047370 0.414678 -1.252850
H 4.975315 0.948326 0.467631
H 2.348030 -1.987620 0.517849
C 0.191662 1.773341 0.754990
N 0.316683 2.869997 1.312321
H 0.315670 2.938316 2.340703
N -0.333095 -1.907296 0.624637
O 0.596051 -2.656349 0.984432
O -1.510132 -2.262207 0.801086
