30

Ir -0.276043 0.095631 -0.256250
H -0.342738 0.150793 -1.954891
H -0.408022 -0.878799 -1.721567
N -2.404972 0.067207 -0.153905
C -4.621244 -0.765984 -0.173788
O -4.503006 0.518458 0.519554
C -3.210009 0.848056 0.486040
C -3.196715 -1.053389 -0.697237
H -3.118072 -1.049614 -1.804093
H -2.758091 -2.000100 -0.320869
H -5.384109 -0.649823 -0.968083
H -4.979178 -1.508823 0.567098
H -2.906811 1.766377 1.010613
P 1.958688 -0.027259 -0.105500
C 5.070492 -0.234892 0.109242
C 4.308033 -1.415921 0.177918
C 2.910796 -1.460211 0.098402
C 3.112344 1.264593 -0.162848
C 4.490593 1.036483 -0.049086
H 6.165740 -0.308758 0.186022
H 4.842094 -2.372275 0.309549
H 2.357851 -2.408277 0.183995
H 2.724837 2.287554 -0.285323
H 5.160004 1.912445 -0.089274
C -0.260760 1.854608 0.462899
N -0.325288 2.932359 1.053886
H -0.327346 3.831069 0.551450
C -0.375222 -1.751059 0.696573
C -0.472505 -2.838799 1.280377
H -0.550121 -3.771998 1.821856
