40

Ir -0.147243 0.039337 -0.179238
H -0.192622 0.185962 -1.923048
H -0.205637 -0.764944 -1.813967
N -2.320423 -0.013294 -0.143177
C -3.039882 1.063360 -0.539669
C -4.441109 1.038980 -0.525982
N -5.143856 -0.032348 -0.128536
C -4.419206 -1.091764 0.263432
C -3.016457 -1.101227 0.265582
H -2.467495 1.942445 -0.868825
H -5.006897 1.928496 -0.853566
H -4.967581 -1.988789 0.598890
H -2.424310 -1.970901 0.592511
P 2.145176 0.006352 -0.075496
C 2.967080 1.669442 -0.124416
C 2.976000 -0.907123 -1.461700
C 2.627596 -2.391207 -1.587309
C 2.828716 -0.774107 1.457596
C 2.297865 -0.170502 2.759068
C 2.628091 2.511469 -1.355394
H 2.638745 2.185501 0.801614
H 4.061554 1.497301 -0.032530
H 2.696030 -0.359056 -2.386394
H 4.069448 -0.758405 -1.319700
H 2.538563 -1.843073 1.392355
H 3.937195 -0.713604 1.388840
H 1.538701 -2.542984 -1.717632
H 3.149436 -2.833348 -2.460083
H 2.924830 -2.966696 -0.688730
H 2.544847 0.905609 2.861587
H 1.195638 -0.268769 2.808531
H 2.731602 -0.699946 3.631062
H 2.994545 2.045848 -2.292954
H 1.530695 2.639569 -1.451069
H 3.091939 3.516164 -1.283171
C -0.167249 1.648686 0.803060
N -0.169701 2.578180 1.613432
H -0.228419 3.557784 1.303293
C -0.089728 -1.913523 0.488837
N -0.066166 -3.005864 0.942296
