32

Ir 0.025399 0.090823 -0.186360
H 0.160445 -0.400220 -1.833208
H 0.191701 -1.254249 -1.440959
C -1.986307 0.045472 -0.171758
C -4.186606 0.460398 0.271891
C -4.126844 -0.690293 -0.462280
H -5.040904 1.000217 0.689963
H -4.918488 -1.360513 -0.809044
C -2.314055 -2.141271 -1.387049
H -1.844951 -1.899263 -2.360734
H -1.575880 -2.642167 -0.727299
H -3.179258 -2.807501 -1.557964
C -2.540631 2.051431 1.262731
H -1.686567 1.802959 1.918664
H -2.264729 2.922252 0.637642
H -3.417437 2.312840 1.883495
N -2.879746 0.893393 0.448271
N -2.786934 -0.934081 -0.722280
N 2.204641 -0.040584 -0.082158
C 5.005520 -0.238643 0.012085
C 4.381262 0.721875 -0.797038
C 2.984418 0.789711 -0.816949
C 2.803641 -0.969161 0.702439
C 4.195906 -1.094608 0.771772
H 6.102890 -0.316384 0.049881
H 4.963838 1.421836 -1.413187
H 2.453025 1.529589 -1.432994
H 2.105761 -1.616700 1.266131
H 4.630892 -1.865248 1.424756
C 0.159570 1.916284 0.048064
O 0.358171 3.078142 0.107175
Cl -0.207200 -1.940248 1.358050
