30

Ir -0.084822 0.189248 -0.218706
H -0.034788 -0.023461 -1.943079
H -0.076507 -0.942574 -1.667233
N -2.142578 0.178295 -0.273674
C -4.339845 -0.655891 -0.460723
O -4.293334 0.665237 0.171513
C -3.000478 0.972224 0.283423
C -2.906095 -0.883620 -0.967355
H -2.789844 -0.742598 -2.063230
H -2.496205 -1.863825 -0.661419
H -5.113338 -0.627414 -1.250806
H -4.632985 -1.381973 0.324925
H -2.741086 1.890682 0.828179
N 1.991816 0.074183 -0.181735
C 4.800777 -0.179602 -0.190238
C 3.976791 -1.277153 -0.466506
C 2.587059 -1.120824 -0.445500
C 2.793966 1.141361 0.081014
C 4.187066 1.050627 0.091343
H 5.896677 -0.277829 -0.195691
H 4.394972 -2.267857 -0.694687
H 1.913807 -1.964696 -0.632839
H 2.281664 2.091283 0.282652
H 4.777372 1.950439 0.316181
C -0.091504 1.904886 0.502143
N -0.125602 3.056505 0.954258
H -0.155313 3.216769 1.972504
N -0.245833 -1.739326 0.907707
O 0.779794 -2.286687 1.340268
O -1.371985 -2.169639 1.214895
