31

Ir -0.053707 -0.080040 0.188502
H 0.040713 -0.332289 1.925625
H 0.038590 0.626210 1.874048
P -2.330918 0.020573 0.116030
C -2.998913 0.371720 -1.557541
C -3.047270 1.340020 1.173436
C -3.218394 -1.506157 0.635255
H -2.527906 1.309979 -1.909835
H -4.103465 0.467385 -1.543657
H -2.697739 -0.448709 -2.237235
H -2.592500 2.299283 0.858155
H -2.770761 1.147245 2.228189
H -4.150724 1.379819 1.074547
H -2.899050 -2.342650 -0.016714
H -4.317939 -1.378641 0.568316
H -2.932048 -1.751779 1.676222
N 2.091143 0.041597 0.113014
C 4.405734 -0.457513 0.217658
O 4.139364 0.918187 -0.196392
C 2.810437 1.062265 -0.218018
C 3.001372 -1.071001 0.433921
H 2.818405 -1.409274 1.473960
H 2.782488 -1.927982 -0.235421
H 5.025924 -0.418745 1.135229
H 4.988857 -0.944798 -0.588912
H 2.386858 2.034713 -0.517766
C -0.069045 -1.721354 -0.734962
O -0.110344 -2.714434 -1.367641
C -0.133675 1.878479 -0.495894
C -0.188776 3.034407 -0.945806
H -0.229456 4.038304 -1.346994
