43

Ir 0.261654 -0.154553 -0.225760
H 0.310090 -0.371174 -2.012505
H 0.336274 -1.240424 -1.779226
P -2.010143 -0.145594 -0.061872
C -2.655979 0.545523 1.535214
C -2.854352 -1.794911 -0.171118
C -2.512171 -2.617546 -1.413254
C -2.925660 0.845920 -1.345892
C -2.496651 2.307699 -1.473725
C -2.069263 -0.116013 2.783631
H -2.392617 1.623864 1.518554
H -3.765652 0.473174 1.505675
H -2.532369 -2.341803 0.738503
H -3.946715 -1.601704 -0.089635
H -2.756953 0.310586 -2.304583
H -4.010371 0.757901 -1.115149
H -1.430968 -2.858621 -1.424538
H -3.072933 -3.574575 -1.409142
H -2.764776 -2.089989 -2.356306
H -2.671882 2.875607 -0.537061
H -1.415293 2.376249 -1.706791
H -3.063470 2.814624 -2.281290
H -2.316784 -1.194895 2.840398
H -0.964403 -0.035329 2.778579
H -2.458315 0.371648 3.700711
N 2.425110 -0.191627 -0.204940
C 4.587025 0.376486 -0.458337
C 3.284397 0.780522 -0.678651
N 4.489966 -0.857562 0.158422
C 3.174150 -1.172160 0.299177
H 5.268867 -1.440951 0.464436
H 5.547733 0.849625 -0.681835
H 2.900584 1.696540 -1.138184
H 2.763785 -2.082485 0.757007
C 0.291336 1.613216 0.417762
N 0.303745 2.671020 1.045357
C 0.336101 4.044573 0.615370
H 1.189192 4.575326 1.088902
H -0.585804 4.569755 0.946417
H 0.421266 4.157522 -0.490219
C 0.279056 -2.020560 0.678721
C 0.319441 -3.101326 1.290275
H 0.339940 -4.037374 1.831941
