34

Ir -0.148267 -0.120262 -0.270124
H -0.045766 -0.645624 -1.932780
H -0.009339 -1.479166 -1.548891
P -2.420236 -0.173735 -0.205359
C -3.076688 -0.075881 1.507355
C -3.143978 -1.725955 -0.870252
C -3.299916 1.167231 -1.109241
H -2.583827 -0.889538 2.075895
H -4.179747 -0.185037 1.531878
H -2.779850 0.895630 1.947417
H -2.675156 -2.557101 -0.306834
H -2.876981 -1.823254 -1.940556
H -4.246342 -1.741196 -0.754068
H -2.942606 2.145014 -0.731591
H -4.398576 1.089900 -0.980428
H -3.044330 1.102148 -2.184647
N 2.022472 -0.144914 -0.166937
C 4.827813 -0.197186 -0.077652
C 4.068172 -1.188171 0.560492
C 2.671143 -1.132023 0.497604
C 2.752119 0.818136 -0.780927
C 4.150949 0.825178 -0.758845
H 5.927856 -0.219282 -0.044033
H 4.546270 -2.010716 1.112149
H 2.011634 -1.877840 0.979223
H 2.174832 1.599782 -1.295930
H 4.694608 1.629888 -1.274686
C -0.173198 1.692786 0.127739
N -0.166569 2.907835 0.293275
C -0.214828 3.768828 1.444568
H -1.081023 4.459914 1.368939
H 0.695247 4.403979 1.485356
H -0.292883 3.206576 2.402100
Cl -0.325577 -2.252705 1.167179
