54

Ir 0.013792 -0.119530 0.234193
H 0.002814 -0.843364 1.940978
H 0.016964 -1.640357 1.655536
P 2.361364 -0.157545 0.079363
C 3.013764 0.910175 -1.294884
C 3.145115 -1.802665 -0.270439
C 2.835277 -2.896767 0.752654
C 3.312579 0.440630 1.562287
C 2.871130 1.799691 2.107937
C 2.340833 0.651819 -2.644744
H 2.839646 1.957601 -0.968693
H 4.115206 0.764992 -1.346538
H 2.745733 -2.104926 -1.260471
H 4.237974 -1.622361 -0.372950
H 3.176983 -0.345700 2.335099
H 4.391494 0.437730 1.290546
H 1.752738 -3.130663 0.729286
H 3.386299 -3.825343 0.498983
H 3.123351 -2.614060 1.786199
H 3.000971 2.611380 1.363781
H 1.798534 1.784903 2.384764
H 3.462804 2.072000 3.005633
H 2.502418 -0.386118 -2.998123
H 1.244399 0.796030 -2.562781
H 2.734488 1.340529 -3.419983
P -2.331548 -0.102422 0.099290
C -3.223909 -1.359483 1.143592
C -2.958972 -0.404367 -1.617496
C -2.443959 0.608546 -2.642165
C -3.162880 1.482202 0.602003
C -2.884274 1.901353 2.047020
C -3.015604 -2.821971 0.743363
H -2.860052 -1.181509 2.177798
H -4.302929 -1.087431 1.132990
H -2.578378 -1.416503 -1.868961
H -4.069906 -0.440857 -1.584165
H -2.786023 2.256038 -0.098552
H -4.252087 1.368533 0.408834
H -1.335079 0.608854 -2.651505
H -2.797244 0.347645 -3.660377
H -2.785137 1.642449 -2.426812
H -3.294270 1.173557 2.776541
H -1.793595 1.987033 2.225163
H -3.345845 2.885604 2.266702
H -3.500859 -3.050291 -0.226745
H -1.940706 -3.064594 0.623722
H -3.457291 -3.496708 1.504876
C 0.052626 1.715944 0.121074
N 0.072757 2.939038 0.045633
C 0.053123 3.890327 -1.030761
H -0.042189 3.406151 -2.028712
H 0.982539 4.499149 -1.024773
H -0.792526 4.599093 -0.903069
Cl -0.071110 -2.261827 -1.130175
