33

Ir 0.000000 0.142066 0.253729
H -0.000009 0.272591 2.014717
H 0.000012 -0.655938 1.913884
As 2.416018 -0.069772 0.022895
C 2.978320 -0.496687 -1.796651
C 3.192598 -1.531530 1.059957
C 3.525913 1.474345 0.487769
H 2.430084 -1.409403 -2.099205
H 4.072599 -0.660341 -1.846102
H 2.683964 0.337588 -2.460881
H 2.665477 -2.457626 0.760540
H 3.016091 -1.344458 2.136159
H 4.278338 -1.622461 0.861868
H 3.197308 2.337019 -0.123071
H 4.596485 1.262484 0.299144
H 3.370230 1.716737 1.556176
As -2.416020 -0.069758 0.022884
C -3.525848 1.474631 0.487010
C -3.192731 -1.530989 1.060600
C -2.978300 -0.497488 -1.796478
H -3.370236 1.717470 1.555327
H -4.596419 1.262760 0.298390
H -3.197136 2.337024 -0.124170
H -3.016194 -1.343466 2.136718
H -2.665714 -2.457273 0.761580
H -4.278482 -1.621905 0.862564
H -2.683964 0.336508 -2.461068
H -4.072575 -0.661187 -1.845858
H -2.430032 -1.410316 -2.098634
C 0.000022 1.890448 -0.446828
O 0.000057 2.961328 -0.930539
C 0.000001 -1.777233 -0.510617
N -0.000003 -2.856282 -0.995743
