37

Ir -0.373861 -0.083219 0.140805
H -0.427375 -1.164762 1.459670
H -0.398380 -0.358524 1.993925
N -2.636858 0.025184 0.108131
C -2.976890 1.061834 -0.899087
C -3.264757 -1.264752 -0.243991
C -3.120680 0.479106 1.433777
H -2.913153 -1.593260 -1.239511
H -4.375745 -1.171329 -0.260404
H -2.973161 -2.032030 0.497483
H -2.565202 1.405694 1.677220
H -2.902164 -0.296206 2.191897
H -4.218286 0.668719 1.405720
H -2.635911 0.729690 -1.896804
H -2.439555 1.987651 -0.615866
H -4.077621 1.238095 -0.919734
C 1.624330 0.051557 0.115558
C 3.893718 -0.431297 0.456129
C 3.768572 0.860331 -0.358343
H 4.222186 -0.237179 1.505605
H 4.059279 0.713494 -1.426063
C 1.783578 2.310934 -0.937545
H 1.730455 2.151053 -2.038480
H 0.766371 2.496304 -0.511040
H 2.439268 3.183040 -0.737465
C 2.206803 -2.200631 1.049964
H 2.232006 -2.147181 2.163484
H 1.194390 -2.513213 0.734813
H 2.944077 -2.961019 0.719734
N 2.518323 -0.930800 0.437968
N 2.335521 1.147055 -0.266527
H 4.374134 1.697284 0.045250
H 4.595782 -1.167089 0.012846
C -0.293981 -1.033786 -1.443113
O -0.205770 -1.662952 -2.439486
O -0.650853 2.022945 0.672626
H -0.234206 2.208799 1.533520
