52

Ir -1.002286 -0.593009 -0.177303
H -0.835995 -1.129650 -1.772486
H -1.111579 -0.182178 -1.928466
P 1.201927 0.002873 -0.039490
C 2.166815 -2.604531 -0.406805
C 2.404813 -1.369386 0.231443
C 1.563289 1.215796 1.301578
C 0.788610 1.186191 2.478480
C 1.065781 2.079086 3.523641
C 2.110466 3.009633 3.400268
C 2.878144 3.048979 2.225212
C 2.605890 2.157659 1.175629
C 1.821715 0.849245 -1.556946
C 1.082789 1.954477 -2.034770
C 1.514759 2.639522 -3.178664
C 2.674532 2.225983 -3.857418
C 3.405637 1.124768 -3.386514
C 2.984442 0.436135 -2.236157
C 3.560863 -1.207657 1.021760
C 4.470373 -2.267926 1.163533
C 4.235334 -3.491691 0.516930
C 3.082276 -3.657455 -0.268181
H 1.246475 -2.737015 -0.996429
H -0.047537 0.474230 2.553497
H 0.449647 2.058112 4.435487
H 2.319355 3.716064 4.218420
H 3.689770 3.785078 2.118680
H 3.199605 2.203130 0.249650
H 0.167880 2.266899 -1.505424
H 0.936753 3.501853 -3.544829
H 3.007701 2.763920 -4.758445
H 4.312942 0.795285 -3.916007
H 3.562893 -0.425147 -1.869496
H 3.749801 -0.252569 1.534221
H 5.367702 -2.135208 1.787379
H 4.949191 -4.322033 0.631499
H 2.886615 -4.618510 -0.767919
N -3.100630 -1.087868 -0.271470
C -4.998484 -2.286798 -0.408558
C -3.621312 -2.366765 -0.351893
N -5.290990 -0.937491 -0.359493
C -4.130420 -0.235948 -0.275879
H -6.220814 -0.517316 -0.376893
H -5.772050 -3.057033 -0.477255
H -2.969010 -3.245399 -0.348946
H -4.080355 0.860251 -0.206277
C -0.766946 -1.945689 1.088855
N -0.632378 -2.971498 1.756069
H -0.681766 -2.967776 2.782334
N -1.568349 1.478698 0.072260
C -2.369573 2.362196 0.202990
S -3.500777 3.517237 0.363101
