35

Ir -0.000001 0.027205 0.189959
H -0.000002 -0.049346 1.954022
H -0.000001 -0.968788 1.758836
N 2.184099 -0.006214 0.153265
C 2.643808 -0.058324 -1.263255
C 2.746071 1.205104 0.807950
C 2.696658 -1.212962 0.859012
H 2.392244 2.108645 0.280852
H 3.858875 1.166333 0.789108
H 2.392580 1.251697 1.853678
H 2.264734 -2.113981 0.386976
H 2.384053 -1.177217 1.918413
H 3.807769 -1.238899 0.804488
H 2.295840 0.846896 -1.791273
H 2.201276 -0.948717 -1.746071
H 3.755680 -0.107730 -1.299845
N -2.184100 -0.006203 0.153263
C -2.643807 -0.058310 -1.263257
C -2.696668 -1.212948 0.859009
C -2.746067 1.205118 0.807947
H -2.264749 -2.113969 0.386973
H -3.807778 -1.238878 0.804486
H -2.384062 -1.177206 1.918411
H -2.392234 2.108657 0.280849
H -2.392577 1.251710 1.853676
H -3.858871 1.166354 0.789103
H -2.201279 -0.948706 -1.746073
H -2.295834 0.846908 -1.791275
H -3.755680 -0.107711 -1.299850
C 0.000011 1.714826 -0.609516
N 0.000025 2.818535 -1.183518
H 0.000034 2.851469 -2.215434
C -0.000002 -1.857183 -0.669931
C -0.000012 -2.936706 -1.287197
H -0.000026 -3.876824 -1.822561
