37

Ir -0.504397 -0.346188 -0.125574
H -0.766271 -1.136392 -1.597905
H -0.498843 -0.260259 -1.955501
C 1.436848 -0.826030 -0.049150
C 3.494919 -1.683776 -0.516596
C 3.639591 -0.801936 0.519317
H 4.229850 -2.301496 -1.040864
H 4.527536 -0.492109 1.077873
C 2.127318 0.673064 1.859592
H 2.684596 0.371512 2.767655
H 2.436666 1.689397 1.539515
H 1.042536 0.684148 2.067343
C 1.571975 -2.519241 -1.896391
H 0.650599 -3.005658 -1.524432
H 1.314013 -1.906086 -2.783444
H 2.306797 -3.291385 -2.189224
N 2.145691 -1.696185 -0.845075
N 2.379210 -0.297357 0.800442
N -2.665795 0.358279 -0.157740
C -2.910862 1.197616 -1.356248
C -3.601871 -0.789394 -0.159009
C -2.885195 1.183079 1.056023
H -3.430123 -1.403578 -1.062275
H -4.658080 -0.433399 -0.152572
H -3.419411 -1.422167 0.728679
H -2.155342 2.013513 1.059379
H -2.721954 0.562213 1.955614
H -3.922709 1.589619 1.069790
H -2.785726 0.584469 -2.267715
H -2.171001 2.018633 -1.376176
H -3.944339 1.612441 -1.335052
C -0.833115 -1.447856 1.331988
N -1.104185 -2.300224 2.185101
H -1.057056 -2.080552 3.188795
N 0.011598 1.741772 -0.308541
C 0.777554 2.667905 -0.278398
S 1.806762 3.918692 -0.205397
