34

Ir 0.106737 -0.276189 -0.309456
H 0.109552 -0.529680 -1.979219
H 0.090321 0.467657 -1.954430
C 2.165068 -0.157616 -0.238232
C 4.362295 -0.386859 0.313357
C 4.270078 0.632697 -0.593152
H 5.227688 -0.807298 0.833419
H 5.039024 1.282001 -1.021337
C 2.421014 1.789686 -1.820883
H 2.112358 1.343357 -2.786918
H 1.552003 2.283421 -1.341557
H 3.224967 2.526851 -1.999366
C 2.760278 -1.905401 1.481373
H 1.915427 -1.586787 2.119231
H 2.484060 -2.847291 0.970623
H 3.649808 -2.081944 2.113022
N 3.073006 -0.854617 0.523070
N 2.928916 0.762945 -0.916856
P -2.206364 -0.048668 -0.164875
C -5.287539 0.409641 0.103051
C -4.819070 -0.901920 -0.090276
C -3.464859 -1.239065 -0.228040
C -3.036814 1.452798 0.078777
C -4.430623 1.524295 0.182275
H -6.371794 0.571706 0.199758
H -5.560189 -1.717681 -0.136010
H -3.168042 -2.289870 -0.372316
H -2.401127 2.348111 0.161152
H -4.883735 2.517821 0.339247
C -0.037686 -1.989176 0.420779
O -0.222197 -3.099423 0.760622
N 0.178021 1.786083 0.409618
C 0.572683 2.354814 1.409844
O 0.940676 2.993417 2.355862
