46

Ir -0.199797 -0.215758 -0.126870
H -0.208300 -1.093776 -1.627325
H -0.167518 -0.264339 -2.019250
P 2.160750 -0.369688 -0.028220
C 2.860239 0.001911 1.651819
C 3.137398 0.757948 -1.137772
C 2.692990 0.759363 -2.601457
C 2.899428 -2.030009 -0.432441
C 2.237313 -3.223916 0.256309
C 2.332590 1.299431 2.270141
H 2.590358 -0.869100 2.286305
H 3.968592 0.008457 1.561467
H 3.051840 1.781541 -0.718273
H 4.201666 0.452072 -1.032763
H 2.817352 -2.127007 -1.536544
H 3.985774 -1.972360 -0.199834
H 1.650488 1.124732 -2.687536
H 3.339595 1.432416 -3.199979
H 2.745358 -0.248987 -3.062357
H 2.287307 -3.151918 1.361240
H 1.163575 -3.286047 -0.008991
H 2.730553 -4.171321 -0.042776
H 2.563565 2.190207 1.651660
H 1.229609 1.255508 2.375140
H 2.774450 1.461050 3.274554
C -2.251655 0.007173 -0.127554
C -4.331205 0.809525 0.325420
C -4.479303 -0.252375 -0.527138
H -5.074578 1.470407 0.781014
H -5.375425 -0.698388 -0.968513
C -2.910420 -1.869436 -1.643705
H -2.552898 -1.531574 -2.637730
H -2.117412 -2.482397 -1.175072
H -3.826856 -2.474610 -1.772152
C -2.380386 1.930085 1.461500
H -2.049247 1.434963 2.396187
H -1.500265 2.380342 0.962061
H -3.134689 2.703121 1.696718
N -2.971414 0.949758 0.558397
N -3.202466 -0.734831 -0.783402
C -0.317098 -1.204770 1.429851
N -0.392361 -1.949610 2.413218
H -0.378538 -1.563953 3.366468
N 0.004450 1.928306 -0.586766
C 0.789861 2.840483 -0.461466
O 1.564103 3.761474 -0.352829
