29

Ir -0.004549 0.243994 -0.125788
H -0.001383 0.863285 -1.764791
H -0.004294 -0.070074 -1.933080
N -2.071604 0.194016 -0.129826
C -2.824727 0.831449 -1.058756
C -4.220064 0.728206 -1.043446
N -4.885994 0.025997 -0.111365
C -4.130734 -0.592490 0.805094
C -2.727760 -0.535532 0.806290
H -2.287903 1.431428 -1.806807
H -4.813587 1.245120 -1.816735
H -4.648274 -1.174306 1.586823
H -2.116952 -1.057417 1.551451
N 2.078095 0.179402 -0.129251
C 4.878688 0.018543 -0.112309
C 4.210449 0.797076 -1.070384
C 2.815659 0.860143 -1.040600
C 2.719050 -0.582753 0.792380
C 4.115132 -0.674425 0.834509
H 5.977395 -0.042181 -0.103886
H 4.758217 1.362336 -1.837529
H 2.248895 1.474890 -1.753728
H 2.080759 -1.117473 1.504791
H 4.585704 -1.295830 1.609345
C 0.011961 1.506750 1.259254
O 0.018239 2.270781 2.149660
N -0.017803 -1.988341 -0.062410
O 1.055315 -2.609483 -0.079025
O -1.102687 -2.589628 -0.014685
