29

Ir 0.160123 -0.349837 -0.162438
H 0.083658 -0.300777 -1.999721
H 0.120775 0.554526 -1.924216
N 2.338409 -0.447953 -0.189435
C 2.844103 -0.066563 1.161779
C 2.819444 -1.815668 -0.524879
C 2.901912 0.500923 -1.192698
H 2.466788 -2.536198 0.234318
H 3.932065 -1.830122 -0.555537
H 2.416260 -2.116144 -1.508820
H 2.528415 1.518871 -0.972588
H 2.573271 0.200542 -2.204431
H 4.012850 0.477563 -1.148422
H 2.455544 -0.779191 1.911216
H 2.473167 0.947271 1.403908
H 3.957115 -0.085648 1.168077
N -1.894847 -0.172415 -0.124350
C -4.210271 -0.648571 -0.306403
O -3.941725 0.720309 0.127962
C -2.616591 0.855123 0.201383
C -2.809386 -1.273200 -0.494985
H -2.598820 -1.589764 -1.536155
H -2.619779 -2.144859 0.163167
H -4.808350 -0.594502 -1.237457
H -4.816141 -1.138172 0.481698
H -2.187811 1.822288 0.515577
C 0.059032 -1.880975 0.821748
O -0.023476 -2.860462 1.478122
Br 0.353393 2.341975 0.316265
