30

Ir -0.000001 -0.001122 -0.108271
H -0.000005 0.303067 -1.810184
H -0.000007 -0.704638 -1.753152
N -2.094167 0.019922 -0.142221
C -4.904535 0.105506 -0.307743
C -4.135873 1.260034 -0.512631
C -2.743560 1.181365 -0.423724
C -2.838227 -1.099300 0.066579
C -4.234241 -1.089225 -0.012168
H -6.002431 0.137565 -0.374722
H -4.601742 2.228763 -0.743413
H -2.100114 2.058071 -0.577887
H -2.269802 -2.010543 0.304796
H -4.780372 -2.027010 0.164194
N 2.094166 0.019923 -0.142221
C 4.904533 0.105505 -0.307746
C 4.234238 -1.089227 -0.012179
C 2.838225 -1.099302 0.066570
C 2.743559 1.181367 -0.423717
C 4.135872 1.260035 -0.512625
H 6.002429 0.137563 -0.374726
H 4.780369 -2.027014 0.164176
H 2.269799 -2.010545 0.304782
H 2.100114 2.058074 -0.577873
H 4.601741 2.228765 -0.743401
C -0.000006 1.492243 1.047880
N 0.000014 2.491734 1.770975
H 0.000018 2.401018 2.797638
C -0.000003 -1.988758 0.490120
N 0.000011 -3.104173 0.885607
