34

Ir -0.147937 0.013308 -0.134292
H -0.230923 0.515111 -1.734131
H -0.210660 -0.490387 -1.860494
C -2.216157 -0.138657 -0.078454
C -4.409131 0.424481 -0.333697
C -4.362356 -0.838825 0.190338
H -5.258376 1.054891 -0.613296
H -5.161795 -1.532700 0.466610
C -2.562667 -2.431339 0.902292
H -3.205808 -3.249498 0.524844
H -1.496238 -2.578948 0.580268
H -2.631737 -2.396075 2.009315
C -2.722550 2.137043 -1.041963
H -2.134610 2.718542 -0.306741
H -2.109661 2.007673 -1.953905
H -3.648015 2.685499 -1.297371
N -3.094369 0.838974 -0.490090
N -3.023022 -1.166367 0.336746
P 2.159563 0.031022 -0.098447
C 5.286642 -0.138301 -0.033768
C 4.676998 1.113813 0.165246
C 3.290455 1.323083 0.156508
C 3.154839 -1.374850 -0.308229
C 4.552109 -1.318807 -0.259452
H 6.385607 -0.197327 -0.011935
H 5.329597 1.986687 0.337756
H 2.880192 2.332098 0.321358
H 2.597584 -2.311334 -0.472870
H 5.112332 -2.258168 -0.406937
C -0.267356 1.494807 0.997988
N -0.384026 2.573000 1.589313
H -0.365499 2.625303 2.616049
O 0.199977 -2.173387 0.056592
H 0.530846 -2.248223 0.973279
