32

Ir 0.049108 -0.213988 0.190676
H -0.066155 -0.541326 1.863820
H -0.007106 0.420444 1.918008
N -2.095187 0.041249 0.091199
C -2.946445 -1.004923 0.209809
C -4.333414 -0.804307 0.178500
N -4.889040 0.408318 0.031503
C -4.030324 1.433256 -0.091108
C -2.637759 1.271990 -0.064494
H -2.497126 -2.002182 0.324161
H -5.012822 -1.668610 0.278651
H -4.458591 2.442575 -0.218157
H -1.908767 2.095417 -0.170108
P 2.329928 -0.377787 0.188840
C 2.985235 -2.046839 0.594000
C 3.179883 0.743382 1.372339
C 3.110101 0.038626 -1.422614
H 2.656164 -2.320952 1.615090
H 4.092173 -2.069342 0.538048
H 2.552674 -2.780653 -0.113446
H 2.761378 0.593814 2.386085
H 3.009067 1.792616 1.060702
H 4.269488 0.539020 1.383221
H 2.667687 -0.597892 -2.212227
H 4.206705 -0.119760 -1.380156
H 2.902938 1.101740 -1.655744
C -0.034967 -1.737001 -0.871484
N -0.115365 -2.830119 -1.439676
H -0.085662 -2.906684 -2.464937
N 0.212172 1.926847 -0.247317
C 1.109133 2.699936 -0.507989
O 1.998877 3.472105 -0.762420
