50

Ir 0.016687 0.099006 0.185692
H 0.005506 -0.071968 1.998034
H 0.016290 -0.930783 1.918106
P 2.370051 -0.016267 0.044257
C 3.015503 0.532270 -1.607185
C 3.127760 -1.694692 0.258363
C 2.752104 -2.414669 1.554048
C 3.332051 1.025252 1.247695
C 2.871875 2.479785 1.355662
C 2.307966 -0.120392 -2.796968
H 2.879408 1.634554 -1.633544
H 4.110862 0.339429 -1.619220
H 2.766853 -2.285811 -0.607991
H 4.227024 -1.558740 0.156353
H 3.231202 0.514575 2.229077
H 4.404414 0.954591 0.960438
H 1.669462 -2.649169 1.545344
H 3.305191 -3.372553 1.634324
H 2.986314 -1.820417 2.461440
H 2.944906 3.016168 0.387916
H 1.814028 2.535756 1.680420
H 3.491294 3.032747 2.090668
H 2.400631 -1.224453 -2.784312
H 1.224345 0.110849 -2.776935
H 2.731181 0.249604 -3.752730
P -2.335524 0.029452 0.048690
C -3.193017 -0.901876 1.411429
C -2.954824 -0.750558 -1.510726
C -2.420985 -0.086485 -2.781193
C -3.182152 1.682175 0.093480
C -2.918821 2.486794 1.368311
C -2.939250 -2.411093 1.439588
H -2.837960 -0.426838 2.350467
H -4.279318 -0.674971 1.328888
H -2.590376 -1.797410 -1.455634
H -4.066207 -0.758721 -1.472201
H -2.809167 2.235608 -0.793620
H -4.269207 1.508746 -0.063613
H -1.313448 -0.128789 -2.793937
H -2.795841 -0.614621 -3.681144
H -2.725007 0.976861 -2.867649
H -3.338739 1.990591 2.266809
H -1.830614 2.620841 1.532961
H -3.379746 3.492820 1.298897
H -3.421804 -2.919898 0.581288
H -1.857570 -2.645780 1.378401
H -3.354353 -2.854336 2.367551
C 0.048389 1.818922 -0.433723
O 0.063673 2.919926 -0.857120
Cl -0.043018 -2.325393 -0.605475
