31

Ir -0.581659 -0.277916 -0.218095
H -0.706201 -0.463434 -1.922002
H -0.377347 0.439052 -1.916085
N 1.395535 -0.861708 -0.264070
C 2.297918 -0.101532 -0.939363
C 3.669067 -0.381441 -0.877588
N 4.176124 -1.407483 -0.181547
C 3.276623 -2.161402 0.470793
C 1.901990 -1.906216 0.447112
H 1.911425 0.750720 -1.513387
H 4.371677 0.276267 -1.416402
H 3.654337 -3.017580 1.055757
H 1.191797 -2.531585 1.002840
N -2.583647 0.582717 -0.084324
C -2.840137 0.947695 1.339717
C -2.650613 1.823944 -0.908247
C -3.632001 -0.362340 -0.553286
H -1.843696 2.506562 -0.586224
H -3.643009 2.307275 -0.778161
H -2.505933 1.566373 -1.973130
H -3.624292 -1.272549 0.072445
H -3.426088 -0.652198 -1.599540
H -4.633000 0.118986 -0.490754
H -2.035809 1.625306 1.679023
H -2.828626 0.034886 1.961733
H -3.830077 1.446854 1.428433
C -1.126534 -1.778131 0.720436
O -1.485111 -2.748274 1.285660
N 0.134814 1.676971 0.456771
C 1.162076 2.302424 0.557131
S 2.548961 3.126205 0.654716
