32

Ir 0.095161 0.056313 -0.209172
H 0.182395 0.195102 -1.946858
H 0.177409 -0.762953 -1.827154
As -2.289083 0.004293 -0.096186
C -2.943487 -0.346465 1.705970
C -3.125158 -1.399017 -1.163564
C -3.240518 1.632619 -0.615489
H -2.503234 -1.309487 2.027673
H -4.049733 -0.390680 1.726979
H -2.573996 0.459466 2.367892
H -2.691060 -2.360588 -0.828986
H -2.876076 -1.238365 -2.229626
H -4.223586 -1.396351 -1.023624
H -2.874335 2.458401 0.023726
H -4.333701 1.509114 -0.487846
H -3.004218 1.864693 -1.671179
N 2.252015 -0.020037 -0.118262
C 5.060420 -0.085760 -0.023882
C 4.299456 -1.189558 0.385984
C 2.903183 -1.123309 0.328199
C 2.985795 1.049435 -0.512762
C 4.384030 1.054427 -0.480391
H 6.159995 -0.112435 0.013239
H 4.774415 -2.109459 0.756244
H 2.261503 -1.961395 0.641660
H 2.408116 1.916913 -0.862287
H 4.927237 1.950706 -0.812964
C 0.075143 1.656662 0.784898
N 0.022209 2.578815 1.604771
H 0.073644 3.559690 1.296093
C -0.066614 -1.890233 0.468943
N -0.219354 -2.973492 0.920627
