31

Ir -0.031856 -0.171287 -0.261479
H -0.045023 -0.666770 -1.916865
H -0.013918 -1.548406 -1.416149
N -2.107459 -0.237246 -0.236254
C -4.270418 0.240654 -0.620225
C -2.972518 0.648986 -0.853962
N -4.167544 -0.904474 0.147614
C -2.851813 -1.168671 0.366576
H -4.942442 -1.465749 0.500433
H -5.232433 0.658752 -0.930186
H -2.591168 1.509430 -1.411590
H -2.437625 -1.993921 0.959711
N 2.024693 -0.151665 -0.270996
C 4.271859 -0.836546 -0.006107
O 4.155967 0.576267 -0.365760
C 2.843840 0.838938 -0.425106
C 2.835353 -1.380321 -0.118758
H 2.476391 -1.937986 0.768515
H 2.667012 -2.021894 -1.009181
H 4.677139 -0.882991 1.026348
H 4.996170 -1.305593 -0.699311
H 2.537100 1.879704 -0.600732
C -0.078491 1.690018 0.066022
N -0.096503 2.897372 0.307963
C -0.135604 3.615408 1.559896
H -1.050674 4.243392 1.608646
H 0.728113 4.310608 1.628465
H -0.121425 2.942027 2.446715
C 0.007301 -1.660224 1.193160
C 0.010359 -2.511221 2.098695
H 0.026465 -3.231672 2.905717
