32

Ir -0.361049 -0.019816 -0.311915
H -0.420210 -0.011854 -1.998175
H -0.438484 -1.006879 -1.815782
N -2.494177 -0.123909 -0.244113
C -4.684914 0.320609 -0.447716
C -3.414079 0.809009 -0.680998
N -4.503327 -0.919435 0.137414
C -3.171487 -1.161275 0.249514
H -5.240741 -1.556609 0.439644
H -5.675620 0.740331 -0.645128
H -3.096249 1.758624 -1.122483
H -2.681299 -2.047740 0.675186
P 1.877896 0.078075 -0.242960
C 4.999333 0.268896 -0.160144
C 4.262388 1.435685 -0.431208
C 2.863747 1.482052 -0.496269
C 3.006736 -1.202128 0.067765
C 4.390190 -0.976878 0.076545
H 6.097522 0.332969 -0.130674
H 4.816544 2.373600 -0.605627
H 2.344254 2.428611 -0.711944
H 2.614751 -2.210090 0.279578
H 5.041127 -1.842385 0.286593
C -0.431427 1.733742 0.380004
N -0.492704 2.913030 0.681471
C -0.524362 3.705858 1.876196
H -1.440186 4.332905 1.893681
H 0.341456 4.400459 1.893023
H -0.499254 3.086850 2.800053
N -0.440327 -1.966311 0.680995
C 0.286427 -2.905906 0.924782
O 0.985890 -3.850715 1.185342
