32

Ir -0.172657 -0.175264 -0.268285
H -0.281820 -0.218562 -1.972640
H -0.282365 -1.226357 -1.672197
N -2.323687 -0.211359 -0.161093
C -3.052309 0.772289 -0.745205
C -4.452281 0.745520 -0.713978
N -5.148815 -0.237045 -0.122083
C -4.415401 -1.204470 0.449833
C -3.013075 -1.209687 0.444999
H -2.490407 1.578597 -1.237567
H -5.022954 1.558880 -1.194873
H -4.955634 -2.028526 0.946698
H -2.416442 -2.002557 0.922612
P 2.075707 -0.171012 -0.179395
C 5.195337 -0.163987 -0.081450
C 4.536467 0.982443 -0.560022
C 3.143402 1.106609 -0.657390
C 3.114620 -1.445244 0.367362
C 4.508555 -1.312007 0.356449
H 6.295138 -0.162986 -0.046349
H 5.151267 1.839311 -0.883621
H 2.689668 2.031534 -1.045740
H 2.626674 -2.360082 0.738412
H 5.103150 -2.166560 0.721079
C -0.187600 1.676246 0.266966
N -0.211056 2.852043 0.557794
C -0.170465 3.748569 1.671017
H 0.707515 4.421296 1.582261
H -0.109863 3.208168 2.640845
H -1.074465 4.391826 1.675164
C -0.104798 -1.914380 0.840500
N -0.087186 -2.902907 1.488285
