35

Ir -0.463039 -0.232962 -0.231143
H -0.724854 -0.535037 -1.908930
H -0.296220 0.298406 -2.009634
P 1.547958 -1.303286 -0.206001
C 2.439689 -1.122011 1.387466
C 2.746254 -0.697132 -1.458619
C 1.479264 -3.120920 -0.481799
H 2.670507 -0.048640 1.544579
H 3.384209 -1.702655 1.377833
H 1.783109 -1.477447 2.204641
H 2.989625 0.362413 -1.238255
H 2.292956 -0.765809 -2.466280
H 3.676659 -1.299141 -1.425267
H 0.842711 -3.572447 0.303550
H 2.492154 -3.570463 -0.445992
H 1.014740 -3.320447 -1.466805
N -2.371512 0.989704 -0.078318
C -3.568272 0.154712 -0.325366
C -2.421268 1.548671 1.297027
C -2.334901 2.106580 -1.053517
H -2.455871 0.721944 2.029711
H -3.321258 2.194068 1.419107
H -1.505282 2.141819 1.473463
H -2.334680 1.699783 -2.081766
H -1.406798 2.686651 -0.897935
H -3.224049 2.763997 -0.922076
H -3.604066 -0.668558 0.410924
H -3.511645 -0.283253 -1.339103
H -4.496274 0.765871 -0.238616
C -1.111138 -1.496138 0.956677
N -1.504535 -2.272685 1.834297
H -2.018187 -3.133133 1.601006
N 0.578643 1.652645 0.061736
C 1.657107 2.146006 0.270229
S 3.121783 2.782701 0.542954
