37

Ir 0.352608 -0.231240 -0.201846
H 0.363479 -0.811920 -1.790432
H 0.316402 -1.689261 -1.320376
As -2.000442 -0.183296 -0.029611
C -2.674198 0.663651 1.603238
C -2.739211 -1.984985 0.082291
C -3.035142 0.720647 -1.423483
H -2.230136 0.134443 2.467685
H -3.779752 0.613354 1.656752
H -2.336400 1.717222 1.616685
H -2.060943 -2.504592 0.789660
H -2.657051 -2.465293 -0.911169
H -3.790992 -1.983793 0.427702
H -2.697856 1.773631 -1.474336
H -4.121238 0.674608 -1.210820
H -2.816787 0.233285 -2.392615
N 2.577568 -0.474670 -0.010033
C 2.946663 -0.013417 1.349204
C 2.893822 -1.920924 -0.120807
C 3.310959 0.300144 -1.032547
H 2.228703 -2.457695 0.586505
H 3.967622 -2.100385 0.115031
H 2.681600 -2.263223 -1.150364
H 3.047690 1.370527 -0.945792
H 3.013216 -0.047971 -2.038705
H 4.411390 0.171889 -0.907323
H 2.350608 -0.597795 2.074552
H 2.700292 1.058427 1.455599
H 4.034524 -0.172306 1.535170
C 0.463857 1.629332 -0.230554
N 0.548563 2.854414 -0.338119
C 0.571716 3.912089 0.637372
H -0.251291 4.633566 0.444313
H 1.518408 4.489288 0.561075
H 0.472532 3.542351 1.684569
O 0.260653 -1.824143 1.294083
H 0.100801 -1.368401 2.142016
