55

Ir -1.184801 -0.444361 -0.269279
H -1.015926 -1.166886 -1.828344
H -1.073021 -0.269935 -2.113268
P 1.135525 -0.060588 -0.043460
C 1.825830 -2.776131 -0.028462
C 2.161428 -1.500908 0.472789
C 1.513887 1.256724 1.186804
C 0.698781 1.370288 2.331391
C 0.959088 2.365272 3.283515
C 2.037078 3.247565 3.105319
C 2.853541 3.135551 1.968719
C 2.593021 2.146529 1.007102
C 1.935214 0.539456 -1.591741
C 1.309346 1.605928 -2.276217
C 1.883810 2.106664 -3.452858
C 3.070492 1.547593 -3.959125
C 3.687079 0.484018 -3.282461
C 3.124618 -0.020739 -2.097774
C 3.274909 -1.359925 1.326096
C 4.045376 -2.482891 1.666940
C 3.713886 -3.748687 1.157617
C 2.603649 -3.893115 0.309112
H 0.939215 -2.886019 -0.672871
H -0.160496 0.692135 2.451336
H 0.303239 2.462020 4.161623
H 2.233682 4.034861 3.849191
H 3.693968 3.831051 1.820582
H 3.223100 2.075071 0.107437
H 0.372536 2.030057 -1.873274
H 1.396661 2.940234 -3.982021
H 3.514660 1.941773 -4.886298
H 4.614666 0.040641 -3.676354
H 3.613204 -0.852966 -1.568842
H 3.536544 -0.370381 1.730451
H 4.909250 -2.366522 2.339326
H 4.318255 -4.627795 1.429500
H 2.333546 -4.884974 -0.084477
P -3.525682 -0.412684 -0.333394
C -4.181991 0.558020 -1.745565
C -4.263338 0.373462 1.155093
C -4.378613 -2.039027 -0.438718
H -3.674302 1.542245 -1.724102
H -5.281490 0.681934 -1.680448
H -3.915699 0.045007 -2.690102
H -3.845014 1.391146 1.281930
H -3.986460 -0.228536 2.042350
H -5.367631 0.430221 1.071203
H -4.054728 -2.556241 -1.362685
H -5.481281 -1.921337 -0.443695
H -4.073832 -2.658064 0.427859
C -1.214021 -1.716306 1.078645
O -1.261044 -2.556908 1.900228
N -1.389866 1.748799 -0.386078
C -1.666398 2.580915 0.456593
O -1.961656 3.437288 1.245636
