52

Ir 1.189243 -0.224333 0.270992
H 1.075679 -0.167586 2.040315
H 1.201574 0.725391 1.893768
P -1.100280 0.005420 0.033937
C -1.633887 -2.536711 1.121069
C -2.030164 -1.589760 0.152024
C -1.662884 0.714626 -1.567800
C -0.944980 0.390561 -2.735963
C -1.385027 0.859368 -3.981212
C -2.538430 1.656945 -4.068599
C -3.252267 1.984744 -2.905079
C -2.818860 1.514980 -1.655085
C -1.898225 1.050765 1.333719
C -1.473835 2.390798 1.478523
C -2.044065 3.200557 2.470914
C -3.033931 2.688027 3.326735
C -3.458443 1.358626 3.182287
C -2.896520 0.540122 2.188489
C -3.139164 -1.868047 -0.672221
C -3.840189 -3.076026 -0.527089
C -3.446420 -4.010753 0.442976
C -2.342495 -3.737708 1.267726
H -0.754119 -2.329850 1.749992
H -0.028156 -0.214217 -2.655253
H -0.816053 0.609329 -4.889724
H -2.877657 2.030870 -5.046922
H -4.151866 2.616263 -2.967524
H -3.376474 1.780610 -0.744153
H -0.706350 2.787791 0.795230
H -1.710366 4.244652 2.574166
H -3.476592 3.327294 4.106283
H -4.236033 0.949946 3.845940
H -3.240206 -0.499038 2.081668
H -3.453929 -1.141596 -1.435910
H -4.699603 -3.287260 -1.181822
H -3.996787 -4.957901 0.552674
H -2.023337 -4.469544 2.025534
N 3.301947 -0.331257 0.376539
C 5.580357 -0.722409 -0.125301
O 5.377102 0.485551 0.669130
C 4.066178 0.580595 0.888417
C 4.150552 -1.213268 -0.444341
H 3.977447 -2.274612 -0.178813
H 3.872771 -1.081050 -1.510595
H 6.166141 -1.432967 0.493058
H 6.173115 -0.444857 -1.017831
H 3.722564 1.421101 1.504200
C 1.106100 -1.915656 -0.489666
O 1.105238 -2.970536 -1.009801
N 1.542297 1.853018 -0.495862
O 0.570653 2.542083 -0.857259
O 2.697084 2.291028 -0.634273
