57

Ir 1.147513 0.172936 -0.382090
H 1.082967 -0.282477 -2.189788
H 1.142284 -1.101208 -1.991467
P -1.183408 -0.043559 -0.094813
C -1.875805 2.373571 -1.334718
C -2.112776 1.552408 -0.210790
C -1.686857 -0.709993 1.549077
C -0.845414 -0.480382 2.656204
C -1.230260 -0.917644 3.931891
C -2.446617 -1.597858 4.108298
C -3.280406 -1.840752 3.004537
C -2.903895 -1.398685 1.726370
C -2.061544 -1.143003 -1.294606
C -1.531658 -2.434051 -1.513958
C -2.169609 -3.309802 -2.403882
C -3.331076 -2.909241 -3.086437
C -3.858893 -1.627091 -2.870316
C -3.230341 -0.745159 -1.975245
C -2.998915 1.994855 0.791056
C -3.640689 3.239141 0.667582
C -3.408554 4.046477 -0.456623
C -2.526091 3.608528 -1.459924
H -1.156852 2.045553 -2.101968
H 0.119927 0.024888 2.493808
H -0.566291 -0.740956 4.791992
H -2.741756 -1.949814 5.109014
H -4.229554 -2.382754 3.136849
H -3.557023 -1.594867 0.862056
H -0.620824 -2.749286 -0.975074
H -1.751607 -4.315362 -2.566206
H -3.825679 -3.598546 -3.788294
H -4.769257 -1.306426 -3.400212
H -3.653684 0.256557 -1.808410
H -3.186132 1.367635 1.675255
H -4.328129 3.576814 1.458585
H -3.912706 5.020715 -0.551278
H -2.332481 4.239747 -2.340783
P 3.479235 0.296142 -0.329081
C 4.339536 -1.020595 -1.282860
C 4.159935 0.128286 1.370105
C 4.237905 1.854040 -0.956532
H 3.963326 -1.994229 -0.910405
H 5.439525 -0.955133 -1.160392
H 4.075703 -0.922749 -2.354056
H 3.761500 -0.817851 1.787648
H 3.789317 0.970864 1.985224
H 5.268895 0.118224 1.368568
H 3.974066 1.976165 -2.025085
H 5.340949 1.841418 -0.843789
H 3.812157 2.712003 -0.401108
C 1.029858 1.980553 -0.014649
N 0.926727 3.180430 0.164744
C 0.642760 4.116224 1.207431
H -0.405059 4.474276 1.110201
H 1.303514 5.003952 1.126521
H 0.765239 3.673021 2.221083
Br 1.494032 -2.300485 0.628447
