32

Ir -0.205852 -0.218252 -0.247640
H -0.301847 -0.326084 -1.951374
H -0.323670 0.636758 -1.876874
C 1.804038 -0.209456 -0.277636
C 4.023959 -0.607997 0.082611
C 3.931454 0.495155 -0.717855
H 4.896088 -1.122289 0.496048
H 4.706820 1.137969 -1.144129
C 2.083903 1.848309 -1.720244
H 1.751836 1.502817 -2.720173
H 1.233264 2.315342 -1.184753
H 2.901432 2.582862 -1.841146
C 2.423013 -2.149071 1.216741
H 1.701128 -1.842391 1.996061
H 1.988779 -2.992276 0.646784
H 3.360175 -2.482481 1.698839
N 2.725993 -1.024099 0.346705
N 2.580963 0.731421 -0.925502
N -2.350609 0.026709 -0.181094
C -4.357194 1.024046 -0.033045
C -2.993816 1.238609 -0.009181
N -4.522146 -0.336591 -0.220009
C -3.291022 -0.909799 -0.306062
H -5.410430 -0.835055 -0.275990
H -5.204309 1.708791 0.068296
H -2.398185 2.147416 0.138291
H -3.110400 -1.981636 -0.439239
C -0.426141 -1.888249 0.514067
O -0.737911 -2.957273 0.911331
N -0.109748 1.822280 0.548889
C 0.358314 2.386690 1.519347
O 0.794124 3.013298 2.446454
