33

Ir -0.019878 -0.236696 -0.250868
H -0.000742 -0.664738 -1.884779
H 0.084273 0.323827 -1.967672
As 2.422149 -0.231802 -0.074011
C 3.092180 0.329357 1.672660
C 3.345054 1.000065 -1.277048
C 3.304167 -1.948807 -0.382238
H 2.833394 1.397037 1.811792
H 4.191365 0.201251 1.718377
H 2.601886 -0.277481 2.456208
H 3.091764 2.033027 -0.968423
H 2.998589 0.825613 -2.312839
H 4.439699 0.846710 -1.208890
H 2.852931 -2.698803 0.294801
H 4.393495 -1.869622 -0.200177
H 3.115895 -2.260009 -1.427358
P -2.304247 -0.035727 -0.120644
C -5.390153 0.380326 0.113350
C -4.553266 1.512506 0.151513
C -3.157787 1.461618 0.058045
C -3.537983 -1.251702 -0.137049
C -4.898469 -0.930021 -0.022544
H -6.477739 0.527412 0.195287
H -5.024789 2.503522 0.264543
H -2.535492 2.369230 0.103431
H -3.219710 -2.301082 -0.238180
H -5.626073 -1.759022 -0.040962
C -0.055775 -1.802361 0.775172
N -0.057773 -2.917144 1.293142
H -0.065757 -3.064534 2.309200
N 0.084423 1.897550 0.179980
C 0.918642 2.728334 0.458867
O 1.740528 3.567482 0.736029
