51

Ir 1.270900 -0.093309 0.175515
H 1.304752 0.024657 2.030513
H 1.401006 0.867928 1.964894
P -0.995087 -0.009848 0.043690
C -1.398372 -2.669082 0.859042
C -1.864387 -1.645676 0.007474
C -1.644421 0.825279 -1.473956
C -0.976753 0.585669 -2.693506
C -1.452909 1.156301 -3.882316
C -2.593543 1.977724 -3.863589
C -3.257897 2.221823 -2.651565
C -2.789106 1.645784 -1.458941
C -1.855667 0.866659 1.432182
C -1.467192 2.190055 1.738096
C -2.100741 2.882313 2.780194
C -3.115717 2.265677 3.531444
C -3.501267 0.950255 3.231189
C -2.878226 0.251527 2.183739
C -2.991182 -1.882950 -0.805249
C -3.641969 -3.126904 -0.764123
C -3.178950 -4.138708 0.091684
C -2.056797 -3.906096 0.904373
H -0.502393 -2.489297 1.473341
H -0.068682 -0.039175 -2.688629
H -0.924476 0.966955 -4.829555
H -2.961257 2.433397 -4.795979
H -4.148235 2.869227 -2.630257
H -3.312134 1.842463 -0.510869
H -0.663884 2.664161 1.143451
H -1.793426 3.914828 3.008662
H -3.606449 2.811052 4.352695
H -4.295457 0.458901 3.814495
H -3.192663 -0.777082 1.954200
H -3.362356 -1.094219 -1.476613
H -4.517446 -3.304635 -1.407776
H -3.690151 -5.113489 0.121337
H -1.682483 -4.698159 1.570980
N 3.438660 -0.106881 0.202481
C 5.573433 -0.772122 0.441348
C 4.254645 -1.171886 0.535806
N 5.529703 0.551857 0.042116
C 4.229652 0.923754 -0.096942
H 6.333491 1.157811 -0.124243
H 6.512948 -1.303701 0.619808
H 3.833902 -2.145822 0.804852
H 3.840148 1.910051 -0.398836
C 1.327737 -1.771907 -0.584364
N 1.433617 -2.904863 -1.062800
H 1.442389 -3.066181 -2.077975
S 1.353726 2.399470 -0.343657
H 0.924162 2.325566 -1.634719
