29

Ir -0.225446 0.050969 0.200476
H -0.222485 0.012025 1.882620
H -0.256518 -0.970603 1.739143
As 2.132280 -0.163338 0.005897
C 2.920985 0.709837 -1.556850
C 2.613324 -2.041965 -0.214802
C 3.273965 0.478996 1.461589
H 2.436199 0.294710 -2.460746
H 4.015416 0.544938 -1.600293
H 2.697892 1.792235 -1.497175
H 1.774580 -2.474041 -0.797662
H 2.632150 -2.519746 0.783201
H 3.593183 -2.158213 -0.715834
H 3.128711 1.570886 1.568747
H 4.339632 0.254727 1.258884
H 2.955353 -0.016361 2.398684
N -2.339965 -0.038170 0.109539
C -4.556186 0.294197 0.175576
C -3.327388 0.855899 0.468148
N -4.276912 -0.949134 -0.364923
C -2.929490 -1.123837 -0.394637
H -4.962517 -1.630398 -0.690632
H -5.577341 0.665271 0.303468
H -3.084151 1.832787 0.897861
H -2.334368 -1.975169 -0.767824
C -0.183563 1.791704 -0.424205
N -0.159106 3.003092 -0.681460
H -0.206004 3.315491 -1.660930
F -0.374850 -1.885833 -0.755974
