30

Ir -0.104316 0.092282 -0.173633
H -0.194364 0.360093 -1.905442
H -0.174177 -0.598242 -1.855832
N -2.249040 -0.021676 -0.086150
C -2.899744 -1.165862 0.241417
C -4.301109 -1.211891 0.248836
N -5.071832 -0.154936 -0.050949
C -4.414934 0.971930 -0.365434
C -3.016651 1.053888 -0.391211
H -2.272703 -2.033360 0.499082
H -4.808918 -2.154964 0.514557
H -5.017165 1.862913 -0.614127
H -2.487676 1.979570 -0.659334
As 2.290822 -0.030975 -0.096128
C 3.262529 1.589279 -0.596845
C 3.044708 -1.419833 -1.237806
C 2.988818 -0.466137 1.670169
H 3.001866 1.853870 -1.639076
H 4.355201 1.433894 -0.505979
H 2.939512 2.410745 0.070900
H 2.766732 -1.212865 -2.288503
H 2.593321 -2.379654 -0.922093
H 4.146524 -1.452629 -1.133318
H 2.684235 0.330650 2.374551
H 4.092170 -0.556499 1.644269
H 2.521214 -1.420873 1.977420
C -0.058887 1.743978 0.738693
O 0.009373 2.746520 1.347237
C 0.059325 -1.856073 0.493702
N 0.210889 -2.953967 0.908224
