42

Ir 0.037961 0.079676 -0.265403
H -0.047737 -0.144985 -1.935227
H 0.015485 -1.091331 -1.687727
P -2.243947 -0.196096 0.061732
C -2.986468 0.874713 1.382473
C -2.637791 -1.919719 0.613876
C -2.140598 -3.018753 -0.328877
C -3.357200 0.085683 -1.397815
C -3.211677 1.471693 -2.030117
C -2.294472 0.744766 2.740974
H -2.894808 1.916163 1.008877
H -4.071170 0.636710 1.444073
H -2.124691 -2.024063 1.591674
H -3.735502 -1.966259 0.790196
H -3.090308 -0.705172 -2.130495
H -4.402924 -0.111597 -1.074271
H -1.033266 -2.989040 -0.344633
H -2.460795 -4.013994 0.041949
H -2.531973 -2.908654 -1.361379
H -3.505126 2.279199 -1.328569
H -2.160193 1.656705 -2.329624
H -3.852369 1.565389 -2.930382
H -2.411670 -0.269862 3.171987
H -1.209138 0.948964 2.643647
H -2.719043 1.468677 3.465564
As 2.466946 -0.048421 -0.043132
C 3.148334 -1.734947 -0.749285
C 2.888647 -0.197975 1.854510
C 3.701779 1.324496 -0.702787
H 2.442103 -2.482589 -0.338131
H 4.186098 -1.934982 -0.419440
H 3.087345 -1.727700 -1.854020
H 2.210512 -0.997620 2.210602
H 2.639215 0.755960 2.355984
H 3.951045 -0.461759 2.021150
H 3.626149 1.380443 -1.805597
H 4.744932 1.095095 -0.409521
H 3.396555 2.298693 -0.274479
C -0.044098 1.874196 0.182339
N -0.098193 3.054311 0.545170
H -0.215016 3.816193 -0.136070
F 0.420212 -1.776595 0.815477
