34

Ir -0.246333 -0.156248 0.203239
H -0.251750 -0.211571 1.983090
H -0.220533 0.687043 1.905760
P -2.584966 -0.109515 0.075919
C -3.221750 0.321169 -1.589709
C -3.374872 1.101053 1.207739
C -3.412435 -1.704223 0.476408
H -2.777253 1.298760 -1.857130
H -4.328703 0.385560 -1.591467
H -2.885412 -0.447596 -2.311518
H -2.933716 2.088545 0.972225
H -3.141143 0.828301 2.255263
H -4.473718 1.125116 1.062773
H -3.051206 -2.488163 -0.217420
H -4.514244 -1.612919 0.391904
H -3.142461 -2.005224 1.507203
As 2.219567 -0.081286 0.058901
C 3.119488 1.138942 1.290079
C 2.923663 0.412102 -1.693141
C 3.125038 -1.785230 0.408535
H 2.691697 2.141567 1.107124
H 4.211857 1.138840 1.108364
H 2.908310 0.820360 2.328762
H 2.487897 1.395513 -1.946598
H 2.596474 -0.346503 -2.428944
H 4.029472 0.465956 -1.665187
H 2.893687 -2.110175 1.440822
H 4.220600 -1.680517 0.284416
H 2.737630 -2.546383 -0.295560
C -0.232156 -1.858643 -0.535211
O -0.217208 -2.922145 -1.040653
N -0.208392 1.977449 -0.385820
O 0.893155 2.545753 -0.530608
O -1.258972 2.605968 -0.610403
