35

Ir 0.079919 -0.222920 0.093391
H 0.044481 -1.426209 1.401470
H 0.068892 -0.659533 1.908763
As -2.372024 -0.026513 0.094934
C -3.017431 1.422495 -1.044705
C -3.158540 0.431732 1.824863
C -3.443034 -1.557061 -0.498916
H -2.506197 2.345454 -0.709763
H -4.116695 1.532712 -0.968761
H -2.726043 1.205620 -2.089883
H -2.665979 1.362851 2.165268
H -2.942927 -0.378689 2.546977
H -4.252215 0.581336 1.737315
H -3.118120 -1.834495 -1.520242
H -4.523259 -1.312676 -0.499223
H -3.250001 -2.411858 0.177053
C 2.128086 -0.025478 0.067204
C 4.356848 -0.289794 0.454286
C 4.200872 0.818183 -0.334576
H 5.256863 -0.759331 0.861878
H 4.939913 1.508520 -0.751443
C 2.258720 2.029841 -1.370220
H 1.475339 1.605040 -2.024390
H 1.778756 2.784835 -0.717132
H 3.057981 2.489841 -1.980136
C 2.809387 -1.984887 1.472383
H 2.414878 -1.712783 2.472148
H 2.052808 -2.604344 0.954625
H 3.744262 -2.562339 1.593579
N 3.084343 -0.797107 0.681298
N 2.841326 0.959872 -0.566914
C 0.076518 -1.059199 -1.585261
O 0.052117 -1.515529 -2.669334
C -0.057338 1.738779 0.744931
N -0.204402 2.874714 1.041716
