35

Ir -0.170160 0.050365 -0.170555
H -0.093928 -0.335201 -1.842881
H -0.141940 -1.232906 -1.527346
P -2.495928 -0.209181 0.012965
C -3.044941 -0.064110 1.759884
C -3.021945 -1.903573 -0.455508
C -3.610016 0.927126 -0.914612
H -2.413088 -0.781952 2.318337
H -4.118794 -0.311486 1.881952
H -2.844266 0.962014 2.123268
H -2.351285 -2.571765 0.122403
H -2.850477 -2.058076 -1.538460
H -4.085499 -2.093515 -0.207224
H -3.371846 1.970530 -0.627821
H -4.679241 0.717624 -0.708283
H -3.413367 0.817007 -1.999095
C 1.894872 -0.076492 -0.023718
C 3.986288 -0.988948 0.015928
C 4.128090 0.363256 0.169824
H 4.731429 -1.789392 -0.013420
H 5.021240 0.980302 0.305191
C 2.580909 2.325273 0.278422
H 2.096421 2.721244 -0.633900
H 1.907412 2.511997 1.135699
H 3.537935 2.853589 0.442629
C 2.064256 -2.573123 -0.304632
H 1.087702 -2.609978 0.241897
H 1.909227 -2.758860 -1.387848
H 2.771578 -3.323640 0.096242
N 2.628102 -1.241014 -0.095757
N 2.849608 0.903273 0.143149
C -0.375680 1.878675 -0.005082
O -0.644247 3.028591 0.064430
O -0.371840 -1.763416 1.103658
H 0.015800 -1.493679 1.957390
