36

Ir 0.314474 -0.168299 0.107262
H 0.456259 -1.373901 1.605602
H 0.439278 -0.773794 2.180197
C -1.676776 -0.064559 0.067741
C -3.777289 0.700340 -0.354684
C -3.901797 -0.449694 0.378026
H -4.537270 1.375097 -0.759285
H -4.788972 -0.975844 0.742295
C -2.293755 -2.118874 1.355643
H -1.452989 -2.635293 0.853558
H -1.991351 -1.885666 2.396749
H -3.180736 -2.779092 1.373693
C -1.850718 2.037825 -1.281650
H -2.677560 2.625531 -1.721255
H -1.247843 2.671315 -0.601947
H -1.192628 1.654340 -2.084449
N -2.420437 0.917581 -0.539680
N -2.612788 -0.909582 0.618182
N 2.598465 -0.095252 0.094153
C 3.143800 0.209973 1.439699
C 3.169829 -1.377535 -0.375658
C 2.985379 0.993333 -0.840005
H 2.852661 -2.193919 0.299702
H 4.283749 -1.327746 -0.395303
H 2.795643 -1.600487 -1.390947
H 2.555046 1.945605 -0.479327
H 2.578807 0.777612 -1.845120
H 4.095690 1.079016 -0.897168
H 2.872357 -0.600090 2.142037
H 2.710089 1.158700 1.804925
H 4.254076 0.293406 1.397566
C 0.295194 -0.815076 -1.632285
N 0.282986 -0.852134 -2.872235
H 0.304955 -1.762246 -3.353328
C 0.361398 1.645094 1.076950
N 0.426725 2.756748 1.481009
