35

Ir 0.086598 0.082229 -0.190331
H 0.170216 -0.286472 -1.861570
H 0.062565 -1.186856 -1.549713
As -2.346426 -0.148938 0.013620
C -2.924356 -0.000446 1.873665
C -2.944648 -1.945133 -0.457408
C -3.588538 1.045275 -0.927241
H -2.295086 -0.721380 2.428234
H -3.997876 -0.247502 1.987091
H -2.723606 1.026060 2.233925
H -2.257885 -2.610856 0.101131
H -2.816740 -2.099327 -1.545706
H -3.999017 -2.114825 -0.165159
H -3.343560 2.089399 -0.651953
H -4.640722 0.821655 -0.663361
H -3.442040 0.925585 -2.017888
C 2.125479 -0.101035 -0.018943
C 4.185724 -1.080207 0.043713
C 4.368632 0.265898 0.205180
H 4.905254 -1.903911 0.020593
H 5.279202 0.853420 0.354770
C 2.886600 2.277295 0.303873
H 2.428172 2.694759 -0.612333
H 2.208913 2.482913 1.153533
H 3.859035 2.771349 0.483327
C 2.219670 -2.602002 -0.309639
H 1.240509 -2.616772 0.232332
H 2.062282 -2.772767 -1.395030
H 2.903946 -3.376226 0.085949
N 2.821889 -1.289193 -0.086575
N 3.108888 0.847886 0.164497
C -0.065245 1.916456 -0.019498
O -0.299191 3.073667 0.044854
O -0.210898 -1.729064 1.072350
H 0.145803 -1.469239 1.942533
