30

Ir 0.014804 0.135181 -0.375182
H 0.020971 -0.344090 -2.070335
H -0.065317 -1.175689 -1.705750
N -2.030093 0.251907 -0.407620
C -4.292250 -0.430207 -0.390031
O -4.140358 1.006196 -0.155797
C -2.822993 1.235878 -0.117934
C -2.882242 -0.903822 -0.779419
H -2.759366 -1.093119 -1.867088
H -2.527320 -1.797265 -0.224799
H -5.059067 -0.568433 -1.175519
H -4.653295 -0.882193 0.557488
H -2.491473 2.249294 0.147292
N 2.070234 -0.062175 -0.332194
C 4.389952 0.371000 -0.534306
O 4.105718 -0.955524 0.007233
C 2.776927 -1.056637 0.106986
C 2.999693 0.953856 -0.869164
H 2.814638 1.072179 -1.956359
H 2.795753 1.931944 -0.390792
H 5.053187 0.244362 -1.411981
H 4.933416 0.941107 0.246714
H 2.332082 -1.963032 0.554515
C 0.156025 1.864382 0.277668
N 0.252256 3.030703 0.648367
C 0.300854 3.675759 1.935538
H -0.520909 4.417777 2.022623
H 1.249874 4.242685 2.042191
H 0.221360 2.958017 2.782105
Br -0.228854 -2.224347 1.011181
