44

Ir -0.024356 -0.153452 -0.317370
H -0.125982 -0.362185 -2.031161
H -0.137503 -1.291043 -1.692349
P -2.357424 -0.195495 -0.025704
C -2.950303 0.745657 1.459033
C -3.109342 -1.873476 0.203654
C -2.806581 -2.877730 -0.908718
C -3.349489 0.522514 -1.421945
C -2.964174 1.944006 -1.833716
C -2.246596 0.368829 2.764274
H -2.783954 1.817512 1.220509
H -4.050459 0.594977 1.523239
H -2.703205 -2.249304 1.165003
H -4.202613 -1.712208 0.330019
H -3.206742 -0.177859 -2.272215
H -4.420327 0.456026 -1.128045
H -1.718090 -3.073429 -0.966040
H -3.309602 -3.842696 -0.697031
H -3.156259 -2.531807 -1.903161
H -3.113513 2.672046 -1.010724
H -1.897931 1.995337 -2.129913
H -3.581226 2.280762 -2.691228
H -2.399610 -0.696178 3.029090
H -1.152512 0.522316 2.676284
H -2.627492 0.986155 3.603103
P 2.282473 -0.176182 -0.212674
C 5.407428 -0.209655 0.000026
C 4.683761 -1.304154 0.510521
C 3.288166 -1.409420 0.479886
C 3.400559 1.034822 -0.755725
C 4.787229 0.900997 -0.599399
H 6.505356 -0.222905 0.075030
H 5.249487 -2.132629 0.969546
H 2.770381 -2.281156 0.911237
H 2.979662 1.931377 -1.237523
H 5.429438 1.716919 -0.972409
C -0.028775 1.729211 0.050313
N -0.037035 2.920503 0.278973
C -0.007975 3.853782 1.361980
H -0.895341 4.519241 1.317476
H 0.888588 4.503102 1.283157
H 0.008518 3.346184 2.351859
C 0.016536 -1.829994 0.882145
N 0.026743 -2.770493 1.597517
