57

Ir 1.098062 -0.020065 -0.254522
H 1.048791 -0.491802 -2.019718
H 1.106693 -1.315656 -1.746648
P -1.194451 -0.117633 -0.049464
C -1.628651 2.140672 -1.671116
C -2.028555 1.478806 -0.489156
C -1.822701 -0.471574 1.643404
C -1.090110 0.013881 2.745058
C -1.573821 -0.180241 4.046272
C -2.784010 -0.862472 4.256774
C -3.512656 -1.349921 3.160117
C -3.036433 -1.154823 1.853895
C -2.048394 -1.343051 -1.142416
C -1.681685 -2.704226 -1.043337
C -2.296108 -3.656495 -1.869064
C -3.275144 -3.268086 -2.799105
C -3.645171 -1.918216 -2.895435
C -3.038243 -0.957128 -2.070051
C -3.034598 2.051187 0.312867
C -3.632617 3.266397 -0.062972
C -3.239664 3.913686 -1.244483
C -2.236895 3.345924 -2.049740
H -0.820348 1.710307 -2.282682
H -0.133477 0.530796 2.570346
H -0.994463 0.194385 4.904037
H -3.156942 -1.021333 5.280430
H -4.457462 -1.891887 3.320525
H -3.606349 -1.543957 0.996407
H -0.926367 -3.005024 -0.299955
H -2.005616 -4.714842 -1.781238
H -3.752389 -4.019358 -3.447328
H -4.415476 -1.604807 -3.617000
H -3.342315 0.096434 -2.151938
H -3.349003 1.550196 1.240364
H -4.412834 3.708015 0.576019
H -3.711441 4.864391 -1.537339
H -1.918618 3.850559 -2.975110
N 3.242320 0.054342 -0.297497
C 6.051621 -0.031912 -0.195517
C 5.327587 -1.019536 -0.873825
C 3.929800 -0.952556 -0.891003
C 3.943993 1.011316 0.358911
C 5.339458 1.000290 0.434407
H 7.150950 -0.064781 -0.156094
H 5.830093 -1.853321 -1.384287
H 3.330572 -1.719515 -1.396920
H 3.350421 1.803773 0.835970
H 5.853469 1.799043 0.988025
C 0.982917 1.782338 0.192698
N 0.903928 2.899283 0.687584
C 0.661512 4.225806 0.190687
H -0.397689 4.503211 0.378810
H 0.849588 4.316109 -0.902049
H 1.296923 4.960399 0.726340
N 1.349149 -1.990059 0.734598
O 0.361802 -2.529097 1.274313
O 2.474809 -2.500553 0.845831
