30

Ir 0.340376 -0.194058 -0.198243
H 0.388012 -0.426209 -1.867485
H 0.442412 0.583130 -1.823606
N 2.461320 -0.128007 -0.152113
C 4.664747 0.700287 0.002257
O 4.609880 -0.765620 0.027710
C 3.315405 -1.086934 -0.004859
C 3.219120 1.130773 -0.310031
H 3.077073 1.498731 -1.348101
H 2.789555 1.892760 0.369193
H 5.408329 0.996873 -0.761319
H 5.017301 1.030946 1.001072
H 3.053029 -2.150207 0.100247
P -1.909922 -0.210722 -0.131547
C -5.030569 -0.284270 -0.056617
C -4.382659 0.963827 -0.023825
C -2.992220 1.140789 -0.052551
C -2.935985 -1.606301 -0.158237
C -4.332763 -1.503706 -0.118826
H -6.130435 -0.307199 -0.030200
H -5.005769 1.872326 0.030870
H -2.567351 2.156626 -0.005940
H -2.446961 -2.591759 -0.203323
H -4.917275 -2.438967 -0.139312
C 0.360857 -1.818838 0.731732
N 0.419657 -2.962607 1.183764
H 0.405074 -3.150744 2.194912
N 0.446435 1.858780 0.513604
C -0.236218 2.858803 0.571014
O -0.892787 3.864778 0.650262
