35

Ir -0.090481 -0.027193 -0.238474
H -0.096577 -0.231186 -2.029659
H -0.147769 -1.095944 -1.844716
N -2.209563 -0.052130 -0.184583
C -2.981355 0.305355 -1.236816
C -4.378039 0.260053 -1.149918
N -5.021414 -0.114079 -0.031257
C -4.244937 -0.460156 1.004018
C -2.841277 -0.445694 0.945839
H -2.458881 0.635656 -2.146326
H -4.991485 0.545261 -2.021925
H -4.746126 -0.768722 1.937544
H -2.210147 -0.751586 1.788695
As 2.307080 -0.063608 -0.097362
C 3.190081 1.643169 -0.480898
C 3.208516 -1.302223 -1.307513
C 3.018992 -0.513050 1.662968
H 2.922663 1.964946 -1.505205
H 4.289264 1.542732 -0.390754
H 2.820307 2.398970 0.237824
H 2.985119 -1.011477 -2.351771
H 2.787330 -2.301641 -1.092991
H 4.302224 -1.289588 -1.135162
H 2.657617 0.241119 2.387235
H 4.126122 -0.525904 1.642374
H 2.618434 -1.509340 1.924906
C -0.080332 1.712231 0.443774
N -0.081729 2.778710 1.043158
C -0.103973 4.165481 0.668673
H 0.794734 4.681910 1.067718
H -0.985414 4.667906 1.119278
H -0.136669 4.316007 -0.434008
N -0.067451 -2.112611 0.503360
O 1.017058 -2.729645 0.570233
O -1.112347 -2.646160 0.905623
