32

Ir -0.157216 -0.155109 -0.240084
H -0.261967 -0.211379 -1.976988
H -0.286910 -1.137797 -1.773474
N -2.325179 -0.183097 -0.140391
C -3.043045 0.810567 -0.716772
C -4.443288 0.809080 -0.663661
N -5.145390 -0.155327 -0.049128
C -4.418851 -1.130602 0.519385
C -3.016821 -1.162141 0.486282
H -2.472468 1.603115 -1.222293
H -5.009221 1.626700 -1.143164
H -4.967216 -1.937065 1.036398
H -2.393633 -1.961339 0.938666
P 2.079734 -0.120390 -0.133447
C 5.207796 0.000684 -0.027537
C 4.574180 -1.250476 0.085243
C 3.187274 -1.441783 0.053826
C 3.096114 1.281540 -0.253101
C 4.493266 1.201883 -0.185550
H 6.306822 0.041631 0.011336
H 5.207815 -2.144670 0.212648
H 2.733661 -2.436856 0.180524
H 2.602059 2.256818 -0.382479
H 5.066045 2.141413 -0.265248
C -0.205817 1.591273 0.488058
N -0.256204 2.663905 1.055843
C -0.343579 4.066490 0.797913
H -1.234014 4.494478 1.304020
H -0.407772 4.298565 -0.289297
H 0.543744 4.586322 1.216420
S -0.045610 -2.446792 0.832437
H -0.223493 -3.259517 -0.246670
