30

Ir 0.056710 0.104176 0.233808
H 0.027510 0.023270 1.958398
H -0.007929 -0.897435 1.779063
P 2.326343 0.027298 0.090552
C 2.882127 -0.274865 -1.631911
C 3.072494 -1.345499 1.055071
C 3.255650 1.528065 0.612794
H 2.364222 -1.195054 -1.968747
H 3.982643 -0.392873 -1.694026
H 2.550175 0.571395 -2.263970
H 2.561341 -2.271639 0.723818
H 2.870229 -1.189433 2.132560
H 4.165233 -1.415012 0.882456
H 2.902881 2.386123 0.008011
H 4.347795 1.396947 0.472559
H 3.037722 1.738105 1.677840
N -2.083782 -0.005308 0.157282
C -4.399868 0.492423 0.141267
O -4.112821 -0.887832 -0.241866
C -2.784242 -1.030758 -0.200992
C -3.008419 1.109364 0.422856
H -2.880249 1.457007 1.468120
H -2.755478 1.957866 -0.245077
H -5.067317 0.465061 1.025523
H -4.939860 0.969591 -0.700760
H -2.331728 -1.998562 -0.482428
C 0.060286 1.729409 -0.654842
N 0.069600 2.771535 -1.319411
H 0.055340 3.693916 -0.863547
Cl 0.140547 -2.308240 -0.686290
