28

Ir -0.024496 -0.338537 -0.137560
H -0.096662 -0.460214 -1.919429
H -0.062363 0.432239 -1.863859
N 2.063491 -0.324344 -0.191321
C 4.868623 -0.273802 -0.287624
C 4.132324 -1.024634 -1.216189
C 2.737599 -1.033882 -1.130869
C 2.770955 0.404249 0.710400
C 4.169540 0.445259 0.690474
H 5.968305 -0.253953 -0.324865
H 4.626199 -1.612137 -2.003147
H 2.117532 -1.626337 -1.818140
H 2.171886 0.980331 1.430493
H 4.694222 1.049004 1.444598
N -2.107320 -0.291730 -0.148354
C -4.927619 -0.205336 -0.272663
C -4.153034 0.904817 -0.633044
C -2.758930 0.833951 -0.555981
C -2.862287 -1.369680 0.201087
C -4.257880 -1.360155 0.157595
H -6.026261 -0.172783 -0.323058
H -4.615127 1.843638 -0.970780
H -2.113406 1.697204 -0.782187
H -2.313100 -2.264671 0.520998
H -4.804947 -2.264709 0.459660
C 0.042727 -1.776984 1.012268
O 0.110945 -2.695031 1.746415
Br 0.091060 2.323705 0.374157
