28

Ir 0.163467 -0.559953 -0.243152
H 0.254295 -0.319914 -2.132198
H 0.384484 0.493021 -1.984968
N 2.277687 -0.724142 -0.224084
C 4.566567 -0.179731 -0.473257
O 4.348116 -1.290177 0.457090
C 3.026931 -1.444102 0.546665
C 3.173783 0.092040 -1.073445
H 3.070046 -0.242935 -2.126914
H 2.860805 1.154624 -1.003881
H 5.330580 -0.498542 -1.207207
H 4.958130 0.671943 0.119842
H 2.656015 -2.187417 1.266424
P -2.067170 -0.311661 -0.150056
C -5.180506 -0.008979 -0.061843
C -4.399116 1.124994 -0.350531
C -3.000345 1.125468 -0.418516
C -3.245898 -1.543521 0.170670
C -4.620890 -1.275008 0.187056
H -6.275074 0.099572 -0.028508
H -4.917352 2.082143 -0.529922
H -2.440260 2.051698 -0.621470
H -2.874649 -2.561680 0.364758
H -5.304706 -2.113004 0.403993
C -0.009250 -2.218194 0.528690
N -0.100950 -3.342495 1.019946
H -0.154660 -3.509619 2.032696
I 0.546852 2.215499 0.431325
