31

Ir -0.283825 -0.198267 -0.218770
H -0.274595 -0.638690 -1.853208
H -0.307206 -1.548282 -1.455718
N -2.392094 -0.254102 -0.151833
C -4.466414 -1.145748 0.512993
O -4.538153 0.294438 0.225227
C -3.286538 0.671442 -0.050226
C -3.064446 -1.557911 0.038249
H -3.063970 -2.093627 -0.935349
H -2.437183 -2.129890 0.757588
H -5.300155 -1.638244 -0.021618
H -4.612329 -1.263392 1.607261
H -3.095977 1.748232 -0.164906
P 1.940819 -0.251132 -0.047929
C 5.048618 -0.417476 0.275029
C 4.378821 -1.481056 -0.356901
C 2.994390 -1.526646 -0.565905
C 2.995101 0.915283 0.683483
C 4.379150 0.718080 0.767500
H 6.141145 -0.477283 0.391492
H 4.978738 -2.336571 -0.710649
H 2.530542 -2.392584 -1.062964
H 2.531516 1.824295 1.097023
H 4.979801 1.504112 1.255798
C -0.267311 1.641298 0.125485
N -0.268776 2.833291 0.400007
C -0.193180 4.059806 -0.347460
H -0.187916 3.893733 -1.447930
H 0.728486 4.614290 -0.071786
H -1.049104 4.718174 -0.089799
F -0.555262 -1.824782 1.137388
