39

Ir 0.279498 0.113799 -0.129708
H 0.379251 0.129620 -1.924792
H 0.383831 -0.756227 -1.842804
P -2.028258 0.096436 -0.147674
C -2.826632 0.593221 1.450083
C -2.893983 -1.480799 -0.605807
C -2.374218 -2.170928 -1.866745
C -2.771090 1.290537 -1.369184
C -2.265156 2.731584 -1.297424
C -2.337981 -0.166311 2.684291
H -2.615804 1.678669 1.556675
H -3.924980 0.490498 1.307519
H -2.775399 -2.147902 0.269015
H -3.969301 -1.213322 -0.700767
H -2.560278 0.856781 -2.370203
H -3.873356 1.240775 -1.227992
H -1.324318 -2.497513 -1.734954
H -2.979046 -3.074018 -2.086134
H -2.419833 -1.517076 -2.762265
H -2.439123 3.188932 -0.302523
H -1.176109 2.778445 -1.493489
H -2.782425 3.362198 -2.048910
H -2.544007 -1.251170 2.616367
H -1.241533 -0.056884 2.799535
H -2.829185 0.230429 3.596044
N 2.436178 0.178785 -0.131286
C 4.546540 0.953781 -0.199589
C 3.216582 1.321435 -0.173550
N 4.547375 -0.428728 -0.176204
C 3.263145 -0.869100 -0.135577
H 5.370274 -1.031813 -0.184368
H 5.465843 1.545796 -0.231221
H 2.769864 2.320288 -0.178677
H 2.896272 -1.909460 -0.088175
C 0.214992 1.738340 0.748000
O 0.143695 2.740754 1.365628
N 0.286545 -2.038355 0.505355
O -0.690013 -2.453505 1.153018
O 1.242316 -2.813328 0.286690
