33

Ir -0.101182 -0.385145 -0.192244
H -0.312907 -0.799102 -1.837319
H -0.119112 0.139523 -1.952009
P 2.125975 -0.906988 -0.224520
C 3.007180 -0.504280 1.335061
C 3.095947 -0.026056 -1.511111
C 2.491597 -2.685873 -0.511667
H 2.968630 0.592942 1.493116
H 4.065685 -0.829829 1.281039
H 2.499060 -1.011988 2.176862
H 3.085293 1.060510 -1.288135
H 2.635266 -0.199949 -2.502546
H 4.144156 -0.387097 -1.517129
H 1.974408 -3.285809 0.262098
H 3.582396 -2.881294 -0.479382
H 2.087921 -2.979364 -1.500080
N -2.194611 0.201139 -0.093169
C -4.890746 0.975226 -0.039596
C -3.866675 1.931993 0.009565
C -2.532791 1.510816 -0.017913
C -3.180116 -0.727515 -0.134750
C -4.534966 -0.379525 -0.110467
H -5.948347 1.279424 -0.020970
H -4.088475 3.007298 0.070342
H -1.678926 2.207583 0.022883
H -2.851240 -1.775791 -0.183246
H -5.295919 -1.172384 -0.146972
C -0.383455 -1.778465 1.004013
N -0.609376 -2.793927 1.668783
H -0.563866 -2.782222 2.696275
N 0.460649 1.699763 0.092904
C 1.389081 2.444067 0.272921
S 2.659400 3.422959 0.508738
