50

Ir -1.135197 -0.147993 0.168694
H -1.136584 -0.214929 1.957272
H -1.165920 0.669103 1.902723
N -3.299007 -0.130062 0.211836
C -3.996269 -1.254563 0.504052
C -5.396453 -1.237339 0.556605
N -6.117587 -0.129525 0.325656
C -5.412545 0.974298 0.033186
C -4.011165 0.995872 -0.029184
H -3.412462 -2.166507 0.694539
H -5.945326 -2.164292 0.797229
H -5.977806 1.901107 -0.165953
H -3.412859 1.895426 -0.268662
P 1.154688 -0.032633 0.030347
C 1.492302 -2.620275 1.146476
C 2.105770 -1.386564 0.853137
C 1.866644 1.471416 0.824767
C 1.797318 1.570367 2.230144
C 2.304085 2.702456 2.881996
C 2.881572 3.744569 2.137064
C 2.951135 3.647500 0.739055
C 2.444200 2.516094 0.080524
C 1.751864 -0.018016 -1.714014
C 1.085262 0.826689 -2.631138
C 1.501169 0.864213 -3.969832
C 2.562061 0.054101 -4.408805
C 3.212753 -0.795941 -3.501651
C 2.813308 -0.833069 -2.155835
C 3.468736 -1.196634 1.175144
C 4.204515 -2.231470 1.770332
C 3.588657 -3.462380 2.053519
C 2.233701 -3.653425 1.741905
H 0.426224 -2.762527 0.916435
H 1.346570 0.756191 2.819090
H 2.245951 2.772267 3.979047
H 3.276854 4.635214 2.649218
H 3.399306 4.462153 0.149916
H 2.494973 2.450680 -1.015692
H 0.247027 1.454341 -2.280414
H 0.982254 1.527992 -4.678404
H 2.877752 0.080268 -5.463277
H 4.037185 -1.441651 -3.841178
H 3.325527 -1.508548 -1.455340
H 3.953630 -0.230780 0.965049
H 5.265245 -2.073263 2.018730
H 4.166805 -4.272355 2.524428
H 1.744105 -4.613020 1.967923
C -1.135480 -1.689618 -0.837379
O -1.159778 -2.677067 -1.476976
Cl -1.137238 2.354828 -0.379080
