51

Ir -1.151341 -0.116224 0.169275
H -1.197566 0.229374 1.985405
H -1.219979 1.066533 1.780373
N -3.299289 -0.085111 0.195894
C -4.061414 -1.199782 0.062431
C -5.457583 -1.135123 0.136809
N -6.125644 0.010807 0.352932
C -5.363541 1.107271 0.473640
C -3.963319 1.083103 0.392648
H -3.537699 -2.151939 -0.100384
H -6.050771 -2.058417 0.019461
H -5.877998 2.069258 0.642828
H -3.339666 1.991868 0.424324
P 1.144367 -0.014091 0.030754
C 1.457000 -2.116160 1.918549
C 2.086262 -1.058689 1.233516
C 1.863967 1.653639 0.369628
C 1.708577 2.182325 1.669093
C 2.210232 3.453904 1.978458
C 2.874302 4.208321 0.995835
C 3.036831 3.681822 -0.294574
C 2.534267 2.408862 -0.610656
C 1.784174 -0.510805 -1.625892
C 1.214628 0.104368 -2.763935
C 1.654254 -0.257606 -4.044943
C 2.642096 -1.244485 -4.205060
C 3.193807 -1.868700 -3.076257
C 2.770984 -1.503598 -1.787486
C 3.456702 -0.801733 1.465060
C 4.184339 -1.601132 2.357898
C 3.552379 -2.659894 3.032504
C 2.190021 -2.913745 2.812473
H 0.384968 -2.303156 1.756216
H 1.190902 1.595292 2.443803
H 2.082324 3.858422 2.994273
H 3.266179 5.207940 1.238511
H 3.556610 4.266736 -1.068805
H 2.660583 2.006666 -1.626095
H 0.427936 0.867442 -2.625497
H 1.210713 0.229578 -4.926954
H 2.976587 -1.533220 -5.213519
H 3.958906 -2.651327 -3.194708
H 3.205927 -2.004097 -0.910293
H 3.955090 0.032069 0.946633
H 5.251291 -1.392828 2.531533
H 4.124246 -3.284232 3.736261
H 1.687770 -3.736889 3.343362
C -1.076816 -1.889769 -0.344607
O -1.006597 -2.991191 -0.756184
S -1.223285 2.102161 -1.011830
H -0.581619 2.936236 -0.146045
