40

Ir 0.078101 -0.100090 -0.268005
H -0.002984 -0.428388 -2.134358
H 0.031129 -1.259905 -2.008291
As -2.363512 -0.154957 -0.083012
C -2.952556 -0.404832 1.765585
C -3.282020 -1.621692 -1.000739
C -3.413664 1.414361 -0.626421
H -2.447927 -1.316747 2.138480
H -4.053336 -0.505423 1.835145
H -2.608474 0.464615 2.357637
H -2.798482 -2.559293 -0.664896
H -3.136568 -1.511185 -2.092530
H -4.363456 -1.633897 -0.762339
H -3.023777 2.293458 -0.077704
H -4.490583 1.278558 -0.405301
H -3.269942 1.583922 -1.710747
C 2.105654 -0.196213 -0.076517
C 4.352962 -0.284921 -0.450631
C 4.152469 -0.384802 0.900876
H 5.273567 -0.289882 -1.041632
H 4.866496 -0.488848 1.723151
C 2.130682 -0.379596 2.412586
H 1.593870 0.570038 2.602302
H 1.393663 -1.207160 2.417416
H 2.902246 -0.541035 3.188443
C 2.851827 -0.022534 -2.453683
H 2.510048 -0.980579 -2.895112
H 2.060716 0.735588 -2.612331
H 3.784340 0.298627 -2.953947
N 3.095477 -0.161399 -1.029172
N 2.782732 -0.326237 1.109245
C 0.108615 1.697634 0.259339
N 0.115318 2.754165 0.886866
C 0.134398 4.137986 0.497924
H 1.026287 4.645359 0.924021
H -0.754238 4.665297 0.906844
H 0.146312 4.281171 -0.606801
C -0.058654 -2.017160 0.511897
C -0.185815 -3.114013 1.081438
H -0.274844 -4.084792 1.549862
