33

Ir 0.000002 0.081192 -0.269680
H 0.000008 -0.027411 -1.951822
H 0.000008 -0.992411 -1.766009
P -2.296137 -0.176608 0.036839
C -2.580793 -0.499529 1.821272
C -2.907829 -1.713373 -0.760906
C -3.477387 1.149370 -0.437319
H -1.818840 -1.265251 2.076207
H -3.606141 -0.865834 2.030297
H -2.375818 0.422025 2.398957
H -2.206710 -2.503881 -0.424958
H -2.838146 -1.616021 -1.861573
H -3.947350 -1.959195 -0.463516
H -3.153332 2.095043 0.039948
H -4.515165 0.907403 -0.130417
H -3.437428 1.291338 -1.534999
P 2.296142 -0.176596 0.036846
C 2.907885 -1.713292 -0.760994
C 2.580793 -0.499623 1.821261
C 3.477370 1.149434 -0.437223
H 2.206807 -2.503857 -0.425094
H 3.947418 -1.959090 -0.463627
H 2.838191 -1.615877 -1.861654
H 1.818843 -1.265362 2.076152
H 2.375814 0.421896 2.398999
H 3.606143 -0.865934 2.030265
H 3.437415 1.291470 -1.534894
H 4.515150 0.907467 -0.130329
H 3.153295 2.095072 0.040101
C -0.000009 1.873194 0.207473
N -0.000054 3.100971 0.351496
H -0.000070 3.524973 1.287481
F -0.000013 -1.850461 0.738742
