43

Ir 0.226868 -0.174866 -0.253174
H 0.245342 -0.787484 -1.909145
H 0.291464 -1.594789 -1.430369
P -2.056026 -0.187017 -0.090194
C -2.742305 0.930653 1.223130
C -2.826198 -1.825306 0.314061
C -2.459589 -2.968373 -0.632711
C -2.971517 0.338627 -1.619878
C -2.577846 1.708848 -2.173419
C -2.152102 0.700888 2.615959
H -2.530911 1.963749 0.875224
H -3.847395 0.805092 1.216421
H -2.478450 -2.065431 1.339802
H -3.925058 -1.657968 0.353392
H -2.766861 -0.454925 -2.369905
H -4.057693 0.286335 -1.385364
H -1.369497 -3.161833 -0.598661
H -2.975894 -3.900337 -0.325877
H -2.746842 -2.759692 -1.683965
H -2.792188 2.526044 -1.455227
H -1.493506 1.745988 -2.397635
H -3.138038 1.928671 -3.104915
H -2.367956 -0.316339 2.998782
H -1.049285 0.806822 2.594421
H -2.566992 1.431269 3.340174
N 2.375522 -0.191841 -0.259554
C 4.631120 -0.812198 0.109571
O 4.502002 0.519742 -0.485365
C 3.189685 0.752600 -0.595119
C 3.188608 -1.360430 0.136935
H 2.852421 -1.725953 1.126657
H 3.008445 -2.179851 -0.589944
H 5.072984 -0.681870 1.118781
H 5.331636 -1.396221 -0.517715
H 2.880952 1.742527 -0.962274
C 0.229461 1.705985 -0.075859
N 0.262551 2.920209 0.096144
C 0.259797 3.757264 1.268844
H 0.280450 3.171831 2.215417
H -0.645374 4.401164 1.271939
H 1.134967 4.440016 1.254394
C 0.279377 -1.658130 1.180672
N 0.321625 -2.453712 2.055230
