28

Ir -0.053796 0.345628 -0.188787
H 0.031960 0.181864 -1.956964
H -0.043433 -0.692627 -1.766844
N -2.104739 0.421973 -0.287740
C -4.344459 -0.275522 -0.569231
O -4.242428 1.043311 0.058188
C -2.937417 1.276564 0.219449
C -2.904638 -0.606372 -0.996264
H -2.727303 -0.498859 -2.087448
H -2.551197 -1.608111 -0.674551
H -5.067765 -0.200525 -1.402982
H -4.739395 -0.974056 0.197514
H -2.647037 2.186484 0.763145
N 2.025339 0.200541 -0.162894
C 4.835536 -0.023416 -0.288103
C 4.016076 -1.158617 -0.347409
C 2.627094 -1.016069 -0.278271
C 2.821897 1.303568 -0.101482
C 4.215597 1.227879 -0.156384
H 5.931221 -0.110107 -0.341362
H 4.439296 -2.169175 -0.441360
H 1.941420 -1.880268 -0.280377
H 2.304722 2.267644 -0.006576
H 4.801106 2.156893 -0.100619
C -0.008979 1.911563 0.775904
N 0.019272 3.008911 1.345757
H -0.001735 3.067856 2.373934
Br -0.374099 -2.226980 0.685156
