38

Ir 0.256720 0.117783 -0.265451
H 0.174116 -0.001524 -1.956561
H 0.298820 -0.954409 -1.785991
P -1.987019 -0.188797 0.088470
C -2.429182 0.102189 1.864237
C -2.456991 -1.953771 -0.208289
C -2.561363 -2.368484 -1.676039
C -3.207315 0.813675 -0.880331
C -3.138155 2.324143 -0.646096
C -1.758619 -0.902765 2.812711
H -2.088279 1.136600 2.078004
H -3.538157 0.094542 1.957335
H -1.631610 -2.496390 0.302150
H -3.406102 -2.144110 0.338419
H -3.007136 0.574971 -1.946084
H -4.217244 0.411586 -0.642292
H -1.623246 -2.143777 -2.223188
H -2.735814 -3.460756 -1.754592
H -3.396285 -1.862636 -2.203137
H -3.346323 2.590695 0.409841
H -2.139198 2.728606 -0.900372
H -3.887132 2.848502 -1.273570
H -2.308305 -1.865658 2.823960
H -0.723468 -1.131444 2.480668
H -1.745258 -0.513495 3.850316
N 2.376798 0.030750 -0.246142
C 4.465227 -0.924148 0.282576
O 4.553079 0.521850 0.050691
C 3.295882 0.933111 -0.153153
C 3.034423 -1.290972 -0.145844
H 2.444305 -1.908275 0.563591
H 2.980354 -1.780354 -1.141907
H 4.656324 -1.093247 1.363271
H 5.263770 -1.411072 -0.308134
H 3.126228 2.017620 -0.224901
C 0.196630 1.878869 0.273237
O 0.185091 3.023153 0.563918
F 0.411260 -1.791072 0.774881
