30

Ir -0.275035 0.106111 -0.378235
H -0.328352 -0.112235 -2.076056
H -0.368667 -1.033862 -1.773895
N -2.413251 0.123568 -0.387479
C -4.547720 0.757793 -0.685205
C -3.230770 1.144658 -0.835334
N -4.500061 -0.512218 -0.139502
C -3.200648 -0.869183 0.031003
H -5.301776 -1.095159 0.102454
H -5.488460 1.266088 -0.916130
H -2.812177 2.077516 -1.225208
H -2.818701 -1.810228 0.456750
P 1.961279 0.080629 -0.306964
C 5.086803 0.039360 -0.210781
C 4.433757 1.281399 -0.305120
C 3.041605 1.435715 -0.359952
C 2.998019 -1.303304 -0.186466
C 4.392830 -1.183937 -0.154539
H 6.186676 0.023572 -0.176273
H 5.053530 2.193400 -0.342258
H 2.592729 2.438161 -0.438120
H 2.499558 -2.282129 -0.106134
H 4.982575 -2.112803 -0.072872
C -0.282354 1.817786 0.404240
N -0.302170 2.966515 0.805584
C -0.318259 3.677513 2.050406
H -1.211107 4.334993 2.102377
H 0.572018 4.336734 2.122150
H -0.326304 2.996239 2.929386
Br -0.320121 -2.269489 0.934362
