52

Ir 1.255015 -0.098616 0.147224
H 1.278762 -0.454097 1.864580
H 1.291678 0.515614 1.852251
P -1.030950 -0.004534 0.048246
C -1.379518 -2.655868 0.902649
C -1.879673 -1.648012 0.051043
C -1.733936 0.846615 -1.428617
C -1.039042 0.769495 -2.651709
C -1.582342 1.355617 -3.803716
C -2.811561 2.032961 -3.740494
C -3.499345 2.123485 -2.519742
C -2.964481 1.531590 -1.364302
C -1.800967 0.883312 1.473829
C -1.312517 2.167770 1.801075
C -1.884864 2.880623 2.864029
C -2.936006 2.322067 3.611731
C -3.419270 1.044802 3.289695
C -2.857104 0.325265 2.221722
C -3.013054 -1.913296 -0.743666
C -3.638454 -3.169300 -0.682157
C -3.143489 -4.164819 0.174425
C -2.013252 -3.904816 0.967525
H -0.476017 -2.455446 1.499693
H -0.059832 0.267280 -2.680901
H -1.032986 1.295033 -4.755695
H -3.230956 2.500675 -4.644782
H -4.457563 2.662647 -2.462695
H -3.503198 1.610312 -0.407497
H -0.483709 2.599543 1.215367
H -1.501555 3.882337 3.112728
H -3.378135 2.884068 4.449040
H -4.240942 0.600104 3.872179
H -3.242805 -0.674714 1.973237
H -3.406410 -1.139368 -1.419242
H -4.517813 -3.369999 -1.313387
H -3.634828 -5.149073 0.218892
H -1.614896 -4.684345 1.635039
N 3.401102 -0.018351 0.180061
C 5.693516 -0.576665 0.393423
O 5.480160 0.823365 0.032006
C 4.159159 0.999238 -0.063427
C 4.266345 -1.162710 0.514145
H 4.018318 -1.525612 1.532283
H 4.066001 -1.994364 -0.191519
H 6.270189 -0.596052 1.339304
H 6.302269 -1.041277 -0.407687
H 3.770759 1.992485 -0.343320
C 1.309190 -1.665754 -0.904527
O 1.369449 -2.607571 -1.605923
C 1.274742 1.888472 -0.442027
C 1.318623 3.066018 -0.831314
H 1.330981 4.081275 -1.204492
