35

Ir -0.166890 0.049351 -0.227804
H -0.176609 -0.445399 -1.922486
H -0.190272 -1.278818 -1.511612
P -2.506988 -0.161926 0.006707
C -3.082073 0.156264 1.722178
C -3.140200 -1.849365 -0.354927
C -3.557102 0.943312 -1.026764
H -2.532698 -0.535158 2.390762
H -4.175668 0.002209 1.821487
H -2.820032 1.195751 1.998784
H -2.592241 -2.557568 0.297329
H -2.925410 -2.100324 -1.411968
H -4.230629 -1.919694 -0.168022
H -3.288376 1.996448 -0.813416
H -4.635725 0.785235 -0.824367
H -3.346147 0.744435 -2.095634
C 1.906682 0.008016 -0.110711
C 4.053956 -0.762353 -0.165565
C 4.089145 0.513383 0.324169
H 4.856560 -1.484107 -0.342186
H 4.928815 1.129795 0.657792
C 2.398325 2.269736 0.877093
H 2.096798 2.956038 0.062487
H 1.547350 2.155477 1.573847
H 3.261961 2.701939 1.415083
C 2.271780 -2.357751 -0.898363
H 1.516384 -2.768980 -0.200382
H 1.821964 -2.270351 -1.906932
H 3.143321 -3.035597 -0.947206
N 2.722390 -1.057221 -0.421347
N 2.777111 0.965508 0.356881
C -0.389557 1.917471 -0.224475
O -0.659320 3.063713 -0.192006
C -0.147719 -1.490753 1.152521
N -0.206479 -2.371138 1.940478
