33

Ir 0.029594 -0.047631 0.055439
H 0.058800 0.306400 1.715538
H 0.088930 -0.678244 1.767413
N 2.180159 -0.020391 0.067641
C 2.854111 -1.181276 0.263655
C 4.252451 -1.176026 0.364869
N 4.993484 -0.059044 0.274607
C 4.308047 1.077118 0.066871
C 2.911163 1.114748 -0.036352
H 2.194014 -2.075482 0.287752
H 4.789251 -2.126635 0.530087
H 4.887125 2.013158 -0.019741
H 2.355881 2.049156 -0.206930
C -1.993408 -0.081372 0.117626
C -4.137169 0.618800 0.471260
C -4.191233 -0.675406 0.032250
H -4.932645 1.312577 0.758904
H -5.042725 -1.338617 -0.146291
C -2.549247 -2.423348 -0.663027
H -2.776627 -2.495014 -1.746974
H -1.455476 -2.596919 -0.485558
H -3.158201 -3.170634 -0.117754
C -2.329495 2.273649 0.975327
H -1.600778 2.152499 1.797943
H -1.829917 2.822151 0.154229
H -3.202983 2.848902 1.334575
N -2.796202 0.968257 0.519854
N -2.884121 -1.089157 -0.174556
C -0.043497 1.434211 -1.056636
N -0.079951 2.516608 -1.663265
H -0.062685 2.527520 -2.692996
O 0.320528 -2.216550 -0.290841
H 0.461190 -2.251328 -1.257270
