39

Ir 0.230182 0.096724 -0.194810
H 0.242196 -0.209167 -1.996495
H 0.350745 -1.058105 -1.836737
P -2.048660 -0.069836 -0.000264
C -2.710471 0.595890 1.602030
C -2.791442 -1.767043 -0.092072
C -2.476384 -2.548525 -1.366919
C -3.045115 0.855001 -1.273286
C -2.689697 2.330144 -1.460324
C -2.041706 0.016974 2.850026
H -2.553589 1.694494 1.556744
H -3.809118 0.423233 1.604166
H -2.375379 -2.307886 0.782647
H -3.886614 -1.638210 0.053556
H -2.894370 0.300389 -2.223815
H -4.114668 0.725599 -0.995754
H -1.387056 -2.734719 -1.445087
H -2.983146 -3.534740 -1.346875
H -2.808912 -2.023799 -2.286089
H -2.803334 2.913216 -0.524116
H -1.640061 2.446134 -1.794258
H -3.348075 2.794155 -2.222731
H -2.179250 -1.080341 2.924986
H -0.950931 0.213411 2.828191
H -2.463547 0.475921 3.767225
N 2.375221 0.147063 -0.196665
C 4.624976 -0.585764 -0.217452
O 4.489075 0.797708 0.244026
C 3.175762 1.051089 0.263387
C 3.207337 -0.975336 -0.677641
H 2.811391 -1.908358 -0.220255
H 3.100358 -1.049745 -1.780800
H 4.986145 -1.184897 0.644310
H 5.389947 -0.603048 -1.017057
H 2.862027 2.024404 0.668804
C 0.133277 1.875636 0.268397
O 0.097533 2.994552 0.645974
S 0.456434 -2.230761 0.790512
H 0.519572 -1.841869 2.095348
