32

Ir -0.196939 0.081011 -0.183065
H -0.265651 -0.453926 -1.811678
H -0.333112 -1.299648 -1.383554
N -2.362793 -0.024952 -0.141884
C -4.554365 0.352222 -0.476601
C -3.279411 0.791755 -0.775801
N -4.381238 -0.743919 0.348772
C -3.049814 -0.946602 0.534085
H -5.122334 -1.311034 0.760734
H -5.541812 0.719028 -0.771795
H -2.959134 1.639058 -1.390332
H -2.567823 -1.726016 1.145217
C 1.804843 0.014060 -0.134524
C 4.069563 0.513667 0.285797
C 3.986672 -0.718352 -0.621327
H 4.714592 1.315460 -0.130786
H 4.583177 -1.575203 -0.244817
C 2.081262 -2.270356 -1.168345
H 2.885930 -3.026001 -1.067477
H 1.202285 -2.618345 -0.589832
H 1.820077 -2.181387 -2.247119
C 2.356317 2.078076 1.212071
H 3.125434 2.155973 2.009090
H 2.337421 3.035350 0.648396
H 1.371707 1.928783 1.690014
N 2.672942 0.943669 0.369493
N 2.558002 -1.024497 -0.605247
H 4.328713 -0.501136 -1.660976
H 4.454156 0.267667 1.303767
C -0.321525 1.918303 -0.020030
O -0.518632 3.081400 -0.031137
Cl -0.158230 -1.865084 1.486846
