53

Ir 0.057721 -0.207623 0.214459
H 0.119773 -0.606540 1.924989
H 0.036613 0.281216 2.076435
P -2.299295 -0.300612 0.148407
C -2.988491 -0.493207 -1.564367
C -3.198020 1.192178 0.792208
C -2.754966 1.660430 2.179467
C -3.097342 -1.687740 1.094660
C -2.499021 -3.072295 0.841311
C -2.401875 0.487238 -2.583578
H -2.769455 -1.541253 -1.860025
H -4.094225 -0.399997 -1.490720
H -3.044840 2.003171 0.050357
H -4.279841 0.933977 0.771080
H -2.993778 -1.411275 2.165915
H -4.185047 -1.660519 0.862742
H -1.691132 1.968643 2.156652
H -3.357088 2.534044 2.501129
H -2.874298 0.872288 2.951486
H -2.576776 -3.374160 -0.222438
H -1.422184 -3.090753 1.100711
H -3.020955 -3.839868 1.448079
H -2.573490 1.546819 -2.306127
H -1.304360 0.350810 -2.664304
H -2.849584 0.322820 -3.584717
P 2.390338 0.054570 0.069965
C 3.199639 0.779107 1.577637
C 2.884643 1.197520 -1.300241
C 2.380733 0.764751 -2.678412
C 3.369598 -1.489865 -0.237202
C 3.169896 -2.570175 0.828053
C 2.756907 2.203204 1.924367
H 2.950695 0.079740 2.403773
H 4.300550 0.719490 1.427102
H 2.430563 2.170763 -1.021190
H 3.990490 1.312035 -1.276126
H 3.031888 -1.866767 -1.224973
H 4.438448 -1.201391 -0.340528
H 1.275634 0.675300 -2.671383
H 2.661190 1.511425 -3.448423
H 2.800525 -0.212748 -2.993647
H 3.532955 -2.244948 1.824343
H 2.096054 -2.828751 0.922499
H 3.722598 -3.492790 0.558512
H 3.121695 2.936910 1.178070
H 1.652371 2.290412 1.945918
H 3.160922 2.503922 2.912252
C 0.134571 -1.654130 -0.930288
N 0.192146 -2.669272 -1.632902
H 0.185818 -2.604697 -2.659057
N -0.044590 1.969935 0.055081
C -0.700333 2.802032 -0.531179
O -1.356308 3.652663 -1.079649
