27

Ir 0.133338 0.060278 -0.128446
H 0.120949 0.248313 -1.873535
H 0.121269 -0.725530 -1.761222
N -1.926794 0.025199 -0.114412
C -2.601780 -1.144688 -0.299211
C -4.000079 -1.162905 -0.370148
N -4.762825 -0.065617 -0.247591
C -4.087402 1.077997 -0.045546
C -2.692055 1.143668 0.016080
H -1.987285 -2.054124 -0.362068
H -4.514737 -2.126094 -0.530604
H -4.674790 2.005399 0.069107
H -2.162285 2.094509 0.160413
N 2.220150 0.005690 -0.195242
C 4.361853 0.572765 -0.569209
C 3.054407 1.002801 -0.669273
N 4.294569 -0.696729 -0.026696
C 2.992332 -1.014106 0.191307
H 5.086163 -1.304623 0.184901
H 5.308371 1.054082 -0.831300
H 2.650232 1.948312 -1.042829
H 2.604793 -1.949003 0.615902
C 0.226530 1.686526 0.828329
O 0.330097 2.657750 1.484594
C 0.165996 -1.851500 0.683807
C 0.179818 -2.980981 1.199739
H 0.166090 -3.951940 1.677197
