29

Ir 0.013433 0.110785 0.160643
H -0.088346 0.040587 1.965527
H -0.134078 -0.834982 1.868638
P 2.285722 -0.001220 0.098493
C 2.988446 -0.432716 -1.545627
C 3.016042 -1.258224 1.224938
C 3.173858 1.551128 0.544957
H 2.565036 -1.414519 -1.832939
H 4.095680 -0.482455 -1.512324
H 2.664613 0.327403 -2.282466
H 2.588637 -2.239498 0.939136
H 2.723274 -1.026991 2.267606
H 4.121395 -1.275252 1.140664
H 2.858143 2.358425 -0.144376
H 4.273243 1.418642 0.486193
H 2.887113 1.845842 1.573019
N -2.150638 0.049591 0.101289
C -4.320639 0.634042 0.202560
C -3.024784 1.099072 0.313401
N -4.204771 -0.714820 -0.079039
C -2.885330 -1.037963 -0.135421
H -4.974727 -1.368587 -0.222948
H -5.287747 1.136801 0.296994
H -2.660857 2.109415 0.525207
H -2.444007 -2.024928 -0.350362
C 0.045791 1.807450 -0.562248
O 0.083008 2.877791 -1.058030
S 0.080008 -2.343977 -0.539145
H 0.075843 -2.120891 -1.885033
