29

Ir -0.106627 0.141176 -0.176047
H -0.186947 0.173792 -1.919152
H -0.176135 -0.742397 -1.822086
N -2.242898 0.029806 -0.093346
C -2.870627 -1.136259 0.195865
C -4.271158 -1.200668 0.217368
N -5.059636 -0.143943 -0.034732
C -4.422146 1.003852 -0.312299
C -3.025434 1.107295 -0.348028
H -2.209905 -1.996170 0.411880
H -4.764734 -2.159319 0.452953
H -5.039888 1.894519 -0.521051
H -2.512772 2.051285 -0.581578
As 2.284542 0.003163 -0.089447
C 3.284882 1.619896 -0.550123
C 3.038730 -1.374600 -1.244408
C 2.941309 -0.458112 1.685814
H 3.054834 1.897499 -1.596257
H 4.373557 1.453779 -0.433335
H 2.953436 2.439348 0.116071
H 2.813162 -1.124497 -2.298422
H 2.526385 -2.316261 -0.969028
H 4.132891 -1.455017 -1.095413
H 2.667785 0.355139 2.384150
H 4.038631 -0.605511 1.674490
H 2.412423 -1.386037 1.975620
C -0.055964 1.768727 0.691424
O -0.003606 2.827507 1.204274
Cl 0.127452 -2.309234 0.586893
