65

Ir -0.903335 -0.227015 0.307131
H -0.815544 -0.594295 2.037578
H -0.885488 0.282097 2.201989
P -3.249622 -0.342495 0.249904
C -3.930180 -0.561761 -1.462372
C -4.162343 1.145886 0.881475
C -3.714513 1.638408 2.258746
C -4.027060 -1.729103 1.212949
C -3.408597 -3.109298 0.986111
C -3.343006 0.402822 -2.496576
H -3.708504 -1.614012 -1.740455
H -5.036199 -0.469376 -1.392043
H -4.028452 1.949045 0.127590
H -5.239915 0.869716 0.873443
H -3.934233 -1.433715 2.280086
H -5.113569 -1.720715 0.974063
H -2.656394 1.964264 2.221599
H -4.328804 2.505477 2.574841
H -3.813033 0.857971 3.041389
H -3.470441 -3.427872 -0.073694
H -2.334788 -3.110558 1.258158
H -3.928124 -3.873516 1.599086
H -3.516814 1.466449 -2.236184
H -2.245762 0.263993 -2.576286
H -3.792098 0.221365 -3.494158
P 1.439379 -0.007181 0.086437
C 1.612875 2.270007 1.729705
C 2.157017 1.606059 0.611862
C 1.935639 -0.142266 -1.684198
C 1.210361 0.642104 -2.608717
C 1.521337 0.580237 -3.973595
C 2.544565 -0.271967 -4.427862
C 3.261507 -1.055380 -3.510826
C 2.962944 -0.989883 -2.138374
C 2.470481 -1.265966 0.958328
C 2.067440 -2.619385 0.908014
C 2.834180 -3.604934 1.546408
C 3.996873 -3.252710 2.252622
C 4.394853 -1.908343 2.313215
C 3.638941 -0.916908 1.666508
C 3.260682 2.168295 -0.062474
C 3.820393 3.374770 0.386673
C 3.282289 4.026696 1.507643
C 2.178938 3.472277 2.176931
H 0.731531 1.850575 2.235952
H 0.399413 1.293361 -2.243560
H 0.956653 1.197607 -4.689155
H 2.781485 -0.325187 -5.501755
H 4.061646 -1.724959 -3.862435
H 3.526881 -1.605637 -1.421358
H 1.152111 -2.900134 0.365576
H 2.514338 -4.657196 1.497230
H 4.591287 -4.028061 2.760224
H 5.301884 -1.624154 2.868752
H 3.958687 0.134570 1.717119
H 3.681791 1.663993 -0.945618
H 4.679805 3.808923 -0.147051
H 3.718744 4.975640 1.855666
H 1.744105 3.987689 3.046860
C -0.829218 -1.703382 -0.797595
N -0.762440 -2.716712 -1.499606
H -0.727684 -2.654321 -2.525334
N -1.061961 1.921235 0.098947
C -1.711016 2.764156 -0.476513
O -2.361941 3.625254 -1.015777
