30

Ir -0.260357 -0.397357 -0.188477
H -0.459835 -0.805476 -1.857130
H -0.242214 0.104476 -1.976866
P 1.966493 -0.932419 -0.195197
C 2.837266 -0.499347 1.361599
C 2.942317 -0.078540 -1.495503
C 2.338579 -2.716740 -0.442225
H 2.804438 0.601266 1.494199
H 3.894141 -0.832252 1.322452
H 2.319856 -0.984248 2.211351
H 2.924180 1.013149 -1.299302
H 2.491864 -0.280119 -2.486381
H 3.992589 -0.433261 -1.482338
H 1.847660 -3.301525 0.359961
H 3.431372 -2.903049 -0.425402
H 1.918186 -3.041532 -1.413674
N -2.300481 0.290345 -0.119853
C -4.544437 0.409745 -0.129172
C -3.464069 -0.444019 -0.239723
N -4.003243 1.667774 0.059100
C -2.648512 1.564857 0.062199
H -4.525350 2.536181 0.180490
H -5.623046 0.231206 -0.166237
H -3.441357 -1.527589 -0.392019
H -1.929400 2.383182 0.192960
C -0.580390 -1.788761 0.989787
O -0.765272 -2.705763 1.704816
N 0.310077 1.695762 0.104339
C 1.247423 2.436402 0.251315
S 2.528480 3.411856 0.442830
