53

Ir 1.192631 -0.162907 0.269240
H 1.121357 0.263424 2.097512
H 1.214469 1.081388 1.912037
P -1.091191 0.009330 0.028943
C -1.577321 -2.391594 1.414693
C -1.990895 -1.582086 0.334175
C -1.677518 0.516336 -1.640208
C -0.943641 0.085094 -2.763375
C -1.392295 0.397521 -4.053959
C -2.568388 1.145425 -4.232449
C -3.298344 1.579071 -3.114440
C -2.857517 1.264777 -1.818904
C -1.918654 1.178314 1.202844
C -1.563611 2.545812 1.162526
C -2.151820 3.448659 2.059871
C -3.091979 3.004425 3.004857
C -3.448713 1.648180 3.044757
C -2.868428 0.736681 2.147229
C -3.075939 -1.997996 -0.461651
C -3.736050 -3.205920 -0.180936
C -3.325455 -4.003179 0.898444
C -2.245493 -3.591507 1.698294
H -0.713797 -2.076937 2.021657
H -0.012805 -0.483830 -2.613084
H -0.812311 0.063430 -4.927901
H -2.913440 1.397259 -5.247188
H -4.216482 2.171556 -3.248993
H -3.428811 1.611895 -0.944495
H -0.833293 2.892782 0.414632
H -1.870545 4.512270 2.017244
H -3.548759 3.717027 3.709037
H -4.188238 1.290944 3.778056
H -3.162222 -0.322295 2.185201
H -3.403018 -1.380514 -1.311282
H -4.577148 -3.525415 -0.815350
H -3.844869 -4.949358 1.115583
H -1.916984 -4.212486 2.546189
N 3.303860 -0.288353 0.343150
C 5.552157 -0.696259 -0.269701
O 5.416271 0.419733 0.661381
C 4.107541 0.578726 0.872072
C 4.124931 -1.275866 -0.382652
H 4.009834 -2.272038 0.092133
H 3.767778 -1.365719 -1.426705
H 6.298476 -1.398650 0.148874
H 5.936399 -0.286058 -1.225833
H 3.801172 1.434480 1.485528
C 1.088460 -1.912690 -0.308628
N 1.058342 -2.972471 -0.940849
H 0.891388 -3.865443 -0.458096
N 1.511944 1.904597 -0.480307
O 0.577844 2.475323 -1.075708
O 2.627376 2.450969 -0.410859
