55

Ir -1.221327 -0.062629 -0.392955
H -1.155666 -0.168674 -2.084897
H -1.193311 0.814453 -1.987129
P 1.043952 -0.035857 -0.165842
C 1.437584 -2.622092 -1.193236
C 1.915707 -1.659929 -0.280113
C 1.605602 0.646564 1.455109
C 0.932274 0.232404 2.623329
C 1.320923 0.730431 3.873407
C 2.379642 1.648314 3.969817
C 3.048512 2.066769 2.810319
C 2.665190 1.569489 1.554331
C 1.906953 1.020562 -1.409803
C 1.355672 2.291003 -1.689143
C 1.991687 3.140309 -2.605957
C 3.167632 2.729547 -3.257167
C 3.711622 1.464536 -2.985894
C 3.086896 0.610555 -2.061567
C 3.053880 -1.947607 0.500740
C 3.708078 -3.182601 0.363613
C 3.232922 -4.134802 -0.552423
C 2.097642 -3.851745 -1.330474
H 0.530571 -2.402482 -1.777848
H 0.078039 -0.456830 2.535974
H 0.780128 0.413728 4.778313
H 2.672860 2.051279 4.951356
H 3.869439 2.797008 2.878369
H 3.185916 1.911070 0.647304
H 0.427699 2.601313 -1.179381
H 1.561024 4.131495 -2.816064
H 3.660094 3.397458 -3.980925
H 4.629813 1.135566 -3.496715
H 3.519227 -0.379204 -1.850947
H 3.426618 -1.204843 1.222531
H 4.593717 -3.401627 0.979953
H 3.745579 -5.103733 -0.656222
H 1.715656 -4.598772 -2.043198
N -3.364687 0.043285 -0.485685
C -5.547998 -0.427065 -0.723992
C -4.272960 -0.957879 -0.766582
N -5.381731 0.910434 -0.412648
C -4.053585 1.164621 -0.273298
H -6.125487 1.599665 -0.300330
H -6.532388 -0.876514 -0.884408
H -3.943815 -1.982015 -0.968697
H -3.580583 2.120479 -0.010127
C -1.311959 -1.738952 0.436262
N -1.372630 -2.898665 0.819766
C -1.364826 -3.576392 2.083611
H -1.411335 -2.878569 2.950170
H -0.441331 -4.186918 2.176531
H -2.222971 -4.277443 2.151494
N -1.317609 1.983509 0.409074
C -0.908136 2.646810 1.342009
O -0.537968 3.357167 2.237389
