33

Ir -0.000001 0.154144 0.259232
H -0.000005 -0.053308 2.022739
H 0.000010 -0.923843 1.850032
As 2.409462 -0.015088 0.022270
C 2.911790 -0.439515 -1.816891
C 3.211389 -1.488818 1.024448
C 3.531401 1.529350 0.460765
H 2.306084 -1.322738 -2.098730
H 3.994908 -0.654552 -1.901290
H 2.636820 0.413579 -2.465423
H 2.636445 -2.392909 0.744270
H 3.090919 -1.298734 2.107986
H 4.283322 -1.608986 0.774131
H 3.141781 2.407331 -0.089151
H 4.589167 1.344978 0.189566
H 3.448993 1.731463 1.545682
As -2.409465 -0.015076 0.022267
C -3.531400 1.529378 0.460714
C -3.211400 -1.488769 1.024493
C -2.911798 -0.439564 -1.816879
H -3.449016 1.731506 1.545630
H -4.589161 1.345010 0.189493
H -3.141762 2.407350 -0.089205
H -3.090900 -1.298667 2.108024
H -2.636483 -2.392879 0.744321
H -4.283342 -1.608920 0.774204
H -2.636848 0.413517 -2.465438
H -3.994913 -0.654621 -1.901263
H -2.306079 -1.322784 -2.098697
C 0.000020 1.885256 -0.369349
N 0.000047 3.082287 -0.675433
H 0.000056 3.384910 -1.657384
Cl -0.000010 -2.271782 -0.607991
