41

Ir -0.018512 0.076576 -0.245161
H -0.143205 0.160771 -1.919239
H -0.122217 -0.847116 -1.789337
P -2.320264 -0.206578 0.079999
C -2.889428 0.281669 1.776058
C -2.790306 -1.988810 -0.056672
C -2.872627 -2.528727 -1.485039
C -3.469085 0.702650 -1.057057
C -3.356289 2.228100 -1.013621
C -2.106683 -0.387704 2.907409
H -2.773454 1.384828 1.826065
H -3.977829 0.061975 1.843041
H -1.945118 -2.480079 0.480059
H -3.739791 -2.140665 0.500518
H -3.223909 0.325876 -2.072380
H -4.502949 0.360716 -0.828079
H -1.925220 -2.346005 -2.031967
H -3.034653 -3.625560 -1.468523
H -3.702735 -2.080126 -2.068711
H -3.647096 2.638489 -0.025399
H -2.320594 2.563083 -1.218175
H -4.024433 2.687132 -1.770290
H -2.202428 -1.491667 2.881313
H -1.028318 -0.139643 2.828459
H -2.470310 -0.040230 3.895786
P 2.284640 0.018117 -0.156708
C 5.387714 -0.290032 0.100806
C 4.579269 -1.428028 0.291597
C 3.183160 -1.421144 0.204442
C 3.492470 1.250135 -0.342626
C 4.861136 0.979288 -0.199248
H 6.479456 -0.398373 0.189758
H 5.077215 -2.385301 0.523275
H 2.564804 -2.319210 0.365958
H 3.149654 2.270266 -0.577441
H 5.568221 1.815928 -0.331902
C -0.088901 1.853306 0.351228
N -0.146398 3.057751 0.601028
H -0.100699 3.434064 1.555094
O 0.145587 -1.949786 0.579543
H 0.282916 -1.788779 1.532951
