41

Ir 0.225230 0.071575 -0.241406
H 0.212005 -0.116753 -1.976317
H 0.316583 -1.031400 -1.698623
P -2.043195 -0.104797 -0.017044
C -2.706573 0.599191 1.565085
C -2.729239 -1.827205 -0.036238
C -2.324742 -2.675192 -1.241952
C -3.057280 0.750192 -1.321769
C -2.732388 2.229761 -1.530119
C -2.051763 0.035998 2.827828
H -2.528119 1.692957 1.500455
H -3.807615 0.440941 1.560054
H -2.348369 -2.296253 0.893905
H -3.833682 -1.730151 0.052510
H -2.874717 0.179552 -2.257241
H -4.126864 0.599243 -1.056177
H -1.226312 -2.818996 -1.253344
H -2.798335 -3.676393 -1.184621
H -2.630255 -2.218802 -2.206243
H -2.918087 2.828057 -0.614768
H -1.665593 2.358684 -1.801675
H -3.356247 2.658079 -2.340949
H -2.221925 -1.053636 2.936906
H -0.955757 0.193303 2.799451
H -2.458953 0.536516 3.729727
N 2.371704 0.133070 -0.244412
C 4.618911 -0.619202 -0.260928
O 4.477012 0.726552 0.295349
C 3.167941 1.003262 0.278708
C 3.190239 -1.003902 -0.705960
H 2.799815 -1.926691 -0.229965
H 3.078499 -1.107704 -1.805433
H 5.021293 -1.268942 0.542602
H 5.355635 -0.567307 -1.086285
H 2.846514 1.958376 0.720365
C 0.147127 1.837051 0.393538
N 0.150952 2.911810 1.011409
H 0.082457 3.793603 0.480847
C 0.425242 -1.717879 0.795250
C 0.578654 -2.753659 1.460670
H 0.711807 -3.642661 2.062307
