44

Ir 0.142572 0.068008 -0.144717
H 0.146200 0.744037 -1.687212
H 0.148096 -0.185895 -1.976834
P -2.211209 -0.040407 -0.034168
C -2.785260 -0.583991 1.645666
C -2.891735 -1.341451 -1.164699
C -2.901097 -0.969257 -2.647633
C -3.229975 1.470885 -0.391671
C -3.038588 2.625147 0.595904
C -2.328851 -2.008784 1.989123
H -2.340630 0.152191 2.347528
H -3.890928 -0.471048 1.705589
H -2.199856 -2.190866 -0.976655
H -3.908366 -1.614365 -0.806774
H -2.941358 1.786125 -1.416585
H -4.295465 1.153021 -0.440007
H -1.889487 -0.669421 -2.990084
H -3.212688 -1.838009 -3.262707
H -3.599941 -0.137464 -2.873675
H -3.377006 2.351403 1.616178
H -1.975667 2.928457 0.669943
H -3.629028 3.509832 0.280820
H -2.981232 -2.763385 1.505066
H -1.301428 -2.190709 1.610133
H -2.367091 -2.186135 3.082881
C 2.208558 -0.086639 -0.129840
C 4.335753 -0.831952 0.165945
C 4.415206 0.431303 -0.357390
H 5.118755 -1.540934 0.451180
H 5.280977 1.043629 -0.626831
C 2.744948 2.179670 -1.055304
H 2.222747 2.073788 -2.026282
H 2.071029 2.699910 -0.348400
H 3.666316 2.773817 -1.199878
C 2.473811 -2.360667 0.893478
H 2.494278 -2.280729 1.999919
H 1.426161 -2.505719 0.534318
H 3.112419 -3.208057 0.578182
N 2.987425 -1.129836 0.297978
N 3.109561 0.872409 -0.525901
C 0.266926 1.392090 1.133445
N 0.412034 2.420031 1.811227
H 0.427292 2.369617 2.838021
F -0.132812 -2.118888 -0.230820
