52

Ir 1.001853 -0.123330 0.255298
H 0.909908 -0.176133 1.970118
H 0.924055 0.766690 1.840636
P -1.335049 -0.002414 0.051232
C -1.750807 -2.561823 1.117345
C -2.185728 -1.638667 0.142122
C -1.913154 0.728960 -1.533118
C -1.150725 0.520656 -2.700189
C -1.607565 1.017042 -3.929016
C -2.814974 1.731778 -3.999662
C -3.569457 1.950358 -2.835999
C -3.121751 1.451277 -1.602555
C -2.161248 1.004241 1.355791
C -1.670672 2.307977 1.593375
C -2.279528 3.110093 2.568892
C -3.368239 2.624120 3.313516
C -3.853342 1.328510 3.078057
C -3.254690 0.517006 2.099956
C -3.246001 -1.986605 -0.717572
C -3.865179 -3.241986 -0.599123
C -3.436532 -4.153007 0.378564
C -2.379080 -3.809365 1.238707
H -0.903346 -2.297032 1.769590
H -0.195248 -0.021058 -2.634868
H -1.006516 0.855677 -4.836797
H -3.165075 2.128368 -4.965243
H -4.511198 2.518399 -2.884763
H -3.710652 1.631070 -0.690088
H -0.813250 2.681296 1.004312
H -1.895522 4.125894 2.749963
H -3.839442 3.257680 4.080930
H -4.705208 0.941799 3.658473
H -3.641102 -0.497119 1.918765
H -3.585279 -1.277654 -1.487539
H -4.687990 -3.508583 -1.280142
H -3.923876 -5.136114 0.468445
H -2.036341 -4.521300 2.005473
P 3.311789 -0.105990 0.217498
C 6.435061 -0.001847 0.089320
C 5.813475 -1.248372 0.281081
C 4.424849 -1.427631 0.359111
C 4.317569 1.286342 -0.015084
C 5.714075 1.199319 -0.050968
H 7.534137 0.035669 0.043627
H 6.455285 -2.140464 0.377179
H 4.004059 -2.433941 0.510214
H 3.785298 2.241597 -0.152084
H 6.282898 2.132180 -0.204203
C 0.976821 -1.733423 -0.695837
N 0.933354 -2.745083 -1.386321
H 0.829575 -3.696292 -1.014919
Cl 1.073443 2.286926 -0.579529
