36

Ir -0.165202 -0.411897 -0.127162
H -0.299154 -1.026836 -1.695369
H -0.009147 -0.113691 -1.916875
N 1.906202 -0.967913 -0.116531
C 4.220392 -0.764223 -0.530311
O 3.935561 -1.464019 0.727139
C 2.610822 -1.413788 0.871148
C 2.848526 -0.672902 -1.219589
H 2.693289 -1.420704 -2.027118
H 2.660278 0.339187 -1.625488
H 4.985717 -1.345026 -1.077460
H 4.605686 0.244173 -0.267342
H 2.193239 -1.768795 1.824335
C -2.060658 0.243798 -0.099700
C -4.294098 0.612187 -0.713664
C -3.982155 1.417022 0.552546
H -4.396243 1.264971 -1.612820
H -4.482119 0.993756 1.456347
C -1.837402 1.901005 1.768006
H -2.079065 1.403206 2.735181
H -0.748412 1.864850 1.582745
H -2.148659 2.963453 1.831872
C -3.042002 -1.242303 -1.867344
H -2.830260 -0.804825 -2.870288
H -2.245194 -1.967538 -1.619580
H -4.012593 -1.776574 -1.917833
N -3.106269 -0.235549 -0.833594
N -2.530050 1.266011 0.665973
H -4.269395 2.485479 0.476425
H -5.216453 0.001492 -0.631514
C -0.583127 -1.629168 1.217645
N -0.878581 -2.557359 1.974666
H -0.843068 -2.447100 2.996550
N 0.702821 1.609773 -0.041089
C 1.758295 2.183479 -0.083819
S 3.199201 2.932708 -0.161429
