30

Ir -0.002077 -0.142643 -0.152284
H -0.100824 -0.290087 -1.913452
H -0.104770 0.625226 -1.861569
P 2.294929 -0.192140 -0.160720
C 3.089711 0.263902 1.429433
C 3.075069 0.882544 -1.428257
C 2.993757 -1.857474 -0.525901
H 2.739290 1.279831 1.689910
H 4.194676 0.244737 1.341098
H 2.761697 -0.452666 2.207036
H 2.719688 1.912463 -1.238275
H 2.747366 0.551095 -2.432901
H 4.180413 0.833319 -1.360828
H 2.645291 -2.578646 0.238629
H 4.102162 -1.827398 -0.530026
H 2.627001 -2.197127 -1.513729
N -2.164150 -0.134262 -0.149190
C -4.290445 -0.833660 -0.358102
C -2.968111 -1.216547 -0.460177
N -4.260628 0.496506 0.018960
C -2.966704 0.891685 0.139230
H -5.070617 1.094100 0.185890
H -5.223164 -1.382906 -0.516262
H -2.539739 -2.187128 -0.728698
H -2.572330 1.882584 0.425684
C -0.003447 -1.711488 0.833013
O 0.005349 -2.690137 1.488745
N 0.127164 2.049313 0.370911
O -0.870454 2.737246 0.658932
O 1.256874 2.573339 0.437821
