30

Ir -0.441601 -0.352369 -0.177280
H -0.586762 -0.773973 -1.842906
H -0.423661 0.152634 -1.960146
As 1.928638 -0.709815 -0.150809
C 2.804176 -0.135552 1.495133
C 2.919720 0.257584 -1.525801
C 2.512600 -2.563831 -0.359259
H 2.704901 0.965878 1.571435
H 3.875360 -0.415962 1.472610
H 2.298773 -0.617261 2.352824
H 2.817386 1.342539 -1.321414
H 2.490843 0.020571 -2.517549
H 3.988567 -0.030414 -1.492998
H 2.049501 -3.168985 0.443436
H 3.616157 -2.635281 -0.301164
H 2.158571 -2.941066 -1.337370
N -2.509347 0.177167 -0.121980
C -4.755147 0.131958 -0.152016
C -3.614717 -0.640432 -0.256235
N -4.309418 1.425156 0.046889
C -2.951047 1.422519 0.062706
H -4.894727 2.252431 0.167160
H -5.817316 -0.125061 -0.200167
H -3.510748 -1.718502 -0.412918
H -2.294594 2.290170 0.204337
C -0.664011 -1.779797 0.979607
O -0.784821 -2.723647 1.673335
N -0.011102 1.774705 0.131017
C 0.871259 2.582666 0.262865
S 2.077288 3.653617 0.436370
