75

Ir -0.010900 0.226553 0.442483
H -0.035981 0.053258 2.111758
H -0.025057 -0.911977 1.854685
P 2.306027 0.043657 0.157447
C 2.947649 2.298826 1.684242
C 3.366830 1.474972 0.619450
C 2.693098 -0.281731 -1.618262
C 1.917810 0.349320 -2.612215
C 2.201707 0.135832 -3.968151
C 3.259535 -0.708784 -4.344784
C 4.031672 -1.342280 -3.358308
C 3.749818 -1.133709 -1.998355
C 3.035593 -1.398294 1.037703
C 2.356554 -2.631738 0.904355
C 2.860279 -3.766405 1.555464
C 4.023391 -3.680729 2.341638
C 4.689330 -2.452679 2.477491
C 4.199632 -1.308222 1.825233
C 4.583311 1.751968 -0.038604
C 5.375048 2.834651 0.374583
C 4.959502 3.645601 1.443695
C 3.745518 3.376397 2.096574
H 1.981182 2.096219 2.171732
H 1.070709 0.984424 -2.310141
H 1.581313 0.624380 -4.735638
H 3.476846 -0.881309 -5.410283
H 4.855697 -2.012974 -3.646913
H 4.346034 -1.648264 -1.229198
H 1.437352 -2.665879 0.287843
H 2.334402 -4.728274 1.451499
H 4.410578 -4.575456 2.853742
H 5.597336 -2.380613 3.096112
H 4.723526 -0.346276 1.933218
H 4.909280 1.122763 -0.880961
H 6.321822 3.047646 -0.145413
H 5.581145 4.496177 1.763637
H 3.409539 4.016909 2.926338
P -2.322195 0.030988 0.108363
C -3.084869 2.309715 1.582715
C -3.514767 1.082202 1.037965
C -2.911058 -1.680889 0.450233
C -2.793089 -2.159389 1.772045
C -3.228740 -3.450763 2.096116
C -3.775558 -4.280319 1.101753
C -3.888517 -3.809358 -0.214913
C -3.460031 -2.512401 -0.543097
C -2.689169 0.327432 -1.673166
C -1.832001 -0.293280 -2.613182
C -2.028778 -0.064095 -3.982203
C -3.061669 0.783326 -4.422735
C -3.906203 1.400969 -3.487410
C -3.725254 1.173883 -2.112053
C -4.859644 0.681173 1.196452
C -5.763043 1.503262 1.886055
C -5.332599 2.728484 2.422731
C -3.995647 3.128578 2.269372
H -2.037079 2.623680 1.464790
H -2.351442 -1.517085 2.549857
H -3.133773 -3.815271 3.130547
H -4.110737 -5.297923 1.355124
H -4.311415 -4.456053 -0.999091
H -3.548656 -2.150287 -1.577717
H -1.018263 -0.945643 -2.239963
H -1.360512 -0.548935 -4.711344
H -3.207178 0.964393 -5.499200
H -4.713556 2.068279 -3.826930
H -4.387499 1.664676 -1.382876
H -5.197180 -0.282378 0.784060
H -6.809116 1.182533 2.008486
H -6.042200 3.370753 2.967044
H -3.652712 4.085405 2.692107
C -0.003068 2.030645 -0.007823
N 0.000609 3.259929 -0.105314
H 0.019971 3.735304 -1.015526
F 0.011972 -1.636553 -0.688462
