32

Ir -0.352743 -0.239537 -0.238393
H -0.372398 -0.701361 -1.866221
H -0.269247 0.292598 -1.983123
N 1.693470 -0.339014 -0.225367
C 2.394498 0.645216 -0.854523
C 3.794549 0.646202 -0.844416
N 4.527165 -0.293538 -0.227878
C 3.824146 -1.248481 0.401705
C 2.425667 -1.288380 0.415538
H 1.802137 1.431441 -1.342188
H 4.334532 1.456419 -1.363797
H 4.390091 -2.035651 0.929203
H 1.869833 -2.074969 0.942129
N -2.517162 0.066562 -0.234795
C -2.930870 0.496911 1.132481
C -2.863674 1.150989 -1.196877
C -3.255295 -1.167835 -0.607505
H -2.257972 2.042002 -0.948116
H -3.949649 1.380004 -1.131121
H -2.619359 0.821724 -2.223108
H -3.027577 -1.968056 0.118714
H -2.936559 -1.499358 -1.612359
H -4.350596 -0.971055 -0.610648
H -2.358620 1.402587 1.401569
H -2.699465 -0.304437 1.856535
H -4.022089 0.712869 1.145327
C -0.542974 -1.647935 0.960791
N -0.689406 -2.540132 1.803209
H -0.812664 -3.526636 1.537330
N -0.200138 1.889956 0.156120
C 0.288317 2.716000 0.902144
O 0.742137 3.585412 1.593880
