52

Ir -1.146204 -0.069423 0.157218
H -1.219141 0.448563 1.990435
H -1.267956 1.257493 1.780892
N -3.291422 -0.073164 0.200532
C -4.029323 -1.209722 0.126093
C -5.425045 -1.171478 0.222772
N -6.116098 -0.032036 0.399981
C -5.377001 1.085267 0.460645
C -3.977992 1.087958 0.360435
H -3.480153 -2.153244 -0.003926
H -5.999588 -2.111811 0.159159
H -5.910738 2.042256 0.595535
H -3.371608 2.009980 0.349090
P 1.141677 -0.014782 0.042614
C 1.418798 -2.104568 1.945320
C 2.068131 -1.063997 1.252742
C 1.901045 1.641980 0.349491
C 1.758021 2.194936 1.640396
C 2.280379 3.463378 1.927655
C 2.952508 4.191481 0.930762
C 3.102262 3.641671 -0.351415
C 2.579261 2.371393 -0.644830
C 1.762882 -0.547906 -1.612372
C 1.197035 0.066169 -2.753143
C 1.609008 -0.328723 -4.033956
C 2.564781 -1.347804 -4.190688
C 3.112169 -1.970647 -3.058708
C 2.717129 -1.572239 -1.770435
C 3.442766 -0.829072 1.482280
C 4.155621 -1.632480 2.383634
C 3.504087 -2.673296 3.067481
C 2.137787 -2.905863 2.847271
H 0.345437 -2.277145 1.775773
H 1.233421 1.628730 2.425838
H 2.161938 3.886399 2.937074
H 3.360434 5.188823 1.155792
H 3.628207 4.205989 -1.136735
H 2.696434 1.951073 -1.654050
H 0.431940 0.852187 -2.616338
H 1.170120 0.158728 -4.918295
H 2.878690 -1.661057 -5.198535
H 3.853594 -2.776324 -3.174343
H 3.148209 -2.069838 -0.889433
H 3.956085 -0.009000 0.956424
H 5.225894 -1.441241 2.556792
H 4.064067 -3.300618 3.778224
H 1.621074 -3.716168 3.384105
C -1.066318 -1.851018 -0.313264
N -0.998088 -3.025857 -0.685375
H -0.892933 -3.275973 -1.677948
S -1.218603 2.153997 -1.008804
H -0.491925 2.970477 -0.194627
