35

Ir -0.151205 -0.187982 -0.260989
H -0.031857 -0.641201 -1.946225
H -0.010530 -1.500638 -1.508911
P -2.428322 -0.230505 -0.210417
C -3.128069 0.038494 1.466860
C -3.156496 -1.833065 -0.735442
C -3.271995 1.023704 -1.258387
H -2.695691 -0.731003 2.135913
H -4.234904 -0.028310 1.461788
H -2.810301 1.035608 1.827820
H -2.747917 -2.620818 -0.072753
H -2.845688 -2.049861 -1.775822
H -4.263017 -1.811275 -0.671085
H -2.916691 2.029079 -0.959673
H -4.374360 0.963904 -1.154980
H -2.984589 0.858768 -2.314812
N 2.027248 -0.186839 -0.152593
C 4.837249 -0.185361 -0.088119
C 4.100795 -1.142582 0.624003
C 2.702738 -1.113036 0.571982
C 2.737095 0.742045 -0.838812
C 4.135608 0.775306 -0.830547
H 5.937589 -0.186450 -0.063803
H 4.596525 -1.917318 1.226563
H 2.079060 -1.837736 1.118547
H 2.141600 1.473249 -1.404313
H 4.659202 1.552146 -1.406291
C -0.184369 1.678658 0.066615
N -0.204447 2.880576 0.302912
C -0.277881 3.666599 1.506707
H -1.158673 4.341622 1.466914
H 0.617787 4.317159 1.591610
H -0.348170 3.040714 2.424750
C -0.266822 -1.774331 1.054741
N -0.381208 -2.638600 1.855338
