29

Ir 0.140865 -0.037422 -0.153533
H 0.097031 -0.228215 -1.878082
H 0.107728 0.765606 -1.762968
N 2.220000 -0.043517 -0.215497
C 4.346605 -0.692333 -0.546807
C 3.025317 -1.073760 -0.666702
N 4.317093 0.582755 -0.013597
C 3.022692 0.948934 0.178494
H 5.126398 1.162512 0.208299
H 5.279431 -1.209247 -0.789486
H 2.589781 -2.005077 -1.039698
H 2.661867 1.901347 0.587579
N -1.941028 -0.023464 -0.124822
C -4.761335 -0.008742 -0.216445
C -4.044017 -1.213410 -0.250244
C -2.648058 -1.182842 -0.207639
C -2.636957 1.145762 -0.077939
C -4.033484 1.185745 -0.127643
H -5.860973 -0.002491 -0.256525
H -4.554421 -2.185165 -0.315103
H -2.045276 -2.099628 -0.245824
H -2.019030 2.051613 0.018777
H -4.536362 2.162961 -0.089915
C 0.194893 -1.558922 0.959066
N 0.252963 -2.408590 1.856825
H 0.257096 -3.409088 1.608711
C 0.214997 1.917928 0.552234
C 0.284101 3.061310 1.033601
H 0.318384 4.048078 1.476092
