37

Ir -0.000012 -0.053124 -0.278176
H 0.000047 -0.558705 -2.057511
H -0.000069 -1.393008 -1.886696
As -2.407141 -0.162515 -0.019600
C -3.021242 -0.406199 1.823544
C -3.277035 -1.665860 -0.923545
C -3.480343 1.373505 -0.607605
H -2.536129 -1.325826 2.202069
H -4.123949 -0.502568 1.866386
H -2.687243 0.458737 2.427175
H -2.774007 -2.583360 -0.561436
H -3.121111 -1.568675 -2.014954
H -4.360195 -1.697490 -0.694779
H -3.110323 2.280031 -0.091681
H -4.554161 1.220590 -0.383599
H -3.337192 1.509584 -1.696545
As 2.407107 -0.162562 -0.019596
C 3.480248 1.374053 -0.606156
C 3.276999 -1.665026 -0.925020
C 3.021358 -0.407961 1.823267
H 3.336241 1.511859 -1.694764
H 4.554200 1.220488 -0.383244
H 3.110932 2.279892 -0.088523
H 3.120663 -1.567038 -2.016298
H 2.774317 -2.582926 -0.563449
H 4.360247 -1.696620 -0.696664
H 2.687896 0.456688 2.427609
H 4.124024 -0.504900 1.865854
H 2.535836 -1.327641 2.201134
C -0.000019 1.803035 -0.191576
N -0.000022 3.023374 -0.137097
C 0.000266 4.056591 0.852563
H 0.891233 4.709673 0.732880
H 0.000446 3.652294 1.890368
H -0.890628 4.709834 0.733247
S -0.000006 -2.366477 0.787226
H -0.000140 -1.955630 2.087628
