33

Ir 0.004505 0.263995 -0.354572
H 0.061729 0.419867 -2.045507
H -0.247969 -0.515412 -1.971311
N -2.068602 0.683007 -0.316412
C -4.383045 0.259072 -0.474728
O -4.055968 1.226037 0.580875
C -2.729436 1.290028 0.617584
C -3.057465 0.076463 -1.235725
H -3.011190 0.607186 -2.210630
H -2.823324 -0.993899 -1.394629
H -5.214576 0.677411 -1.071231
H -4.691275 -0.680998 0.029906
H -2.268571 1.862174 1.436300
P 2.146001 -0.383067 -0.146690
C 5.068253 -1.412588 0.226397
C 4.008271 -2.330078 0.360621
C 2.656142 -1.997465 0.219679
C 3.608788 0.535802 -0.257341
C 4.868066 -0.052221 -0.065752
H 6.098572 -1.776096 0.357404
H 4.255142 -3.379139 0.596036
H 1.857624 -2.744694 0.348852
H 3.524830 1.609002 -0.488002
H 5.755629 0.597020 -0.152582
C 0.382114 1.889544 0.521486
N 0.568879 2.937910 1.105558
C 0.922526 4.303876 0.865962
H 0.143322 4.978455 1.277354
H 1.048381 4.525694 -0.216916
H 1.869378 4.547753 1.391405
N -0.653325 -1.690699 0.396688
C -1.682143 -2.288080 0.571424
S -3.084246 -3.080117 0.785653
