28

Ir -0.163375 0.116288 0.166571
H -0.093565 0.051085 1.929762
H -0.072308 -0.842495 1.803402
N 1.907650 0.066079 0.135255
C 4.076256 0.624541 0.325003
C 2.782901 1.082041 0.478552
N 3.958621 -0.680625 -0.114335
C 2.641144 -0.993241 -0.224262
H 4.726984 -1.316489 -0.328549
H 5.043472 1.108871 0.486999
H 2.417444 2.060674 0.803139
H 2.201739 -1.947939 -0.550547
N -2.335378 0.022337 0.157310
C -2.806027 -1.095681 1.025116
C -2.947218 1.288142 0.640018
C -2.783811 -0.245334 -1.240799
H -2.593276 1.499818 1.665195
H -4.057185 1.200688 0.637423
H -2.644033 2.124462 -0.014944
H -2.297528 -1.177061 -1.587238
H -2.467971 0.590047 -1.891142
H -3.892140 -0.345055 -1.270071
H -2.520389 -0.888979 2.072746
H -2.317484 -2.029715 0.688097
H -3.912726 -1.184221 0.957593
C -0.166076 1.717942 -0.725454
O -0.152060 2.759271 -1.282634
Cl -0.189643 -2.356296 -0.640203
