42

Ir 0.291427 0.049577 -0.251277
H 0.229822 -0.175104 -1.921649
H 0.213619 -1.123970 -1.667711
P -2.024650 -0.162042 0.052038
C -2.752717 0.948721 1.348296
C -2.478101 -1.864835 0.623074
C -2.001868 -2.989108 -0.300563
C -3.114037 0.130872 -1.423585
C -2.917961 1.501948 -2.074710
C -2.080809 0.818826 2.716877
H -2.626527 1.981670 0.961245
H -3.844687 0.744068 1.400976
H -1.978737 -1.971908 1.607685
H -3.578517 -1.877857 0.787838
H -2.863423 -0.678581 -2.141572
H -4.169308 -0.028835 -1.110510
H -0.893956 -2.986698 -0.305668
H -2.350701 -3.970925 0.080170
H -2.381425 -2.882642 -1.337871
H -3.196339 2.328696 -1.389560
H -1.857361 1.650990 -2.362153
H -3.543126 1.601423 -2.985273
H -2.231531 -0.186089 3.160104
H -0.989055 0.991530 2.630702
H -2.493521 1.564110 3.426566
P 2.611680 -0.092170 -0.049222
C 3.026249 -0.203296 1.733344
C 3.692407 1.233696 -0.724561
C 3.233559 -1.675212 -0.735818
H 2.761527 0.750428 2.228868
H 4.094796 -0.444907 1.903315
H 2.366700 -1.008911 2.114781
H 3.370083 2.200063 -0.288772
H 3.560715 1.286798 -1.822946
H 4.760696 1.055328 -0.486423
H 2.547631 -2.431246 -0.301929
H 4.285622 -1.878260 -0.451890
H 3.127119 -1.674133 -1.837835
C 0.265895 1.847288 0.192416
N 0.255691 3.029362 0.553822
H 0.164698 3.793492 -0.129036
F 0.582700 -1.814633 0.837697
