30

Ir -0.163890 0.062938 0.167967
H -0.111480 0.303628 1.916200
H -0.091600 -0.652421 1.860448
N 1.911792 0.028211 0.138113
C 4.066035 0.634584 0.348640
C 2.761306 1.066567 0.477134
N 3.982578 -0.678978 -0.072579
C 2.672195 -1.019203 -0.194292
H 4.767275 -1.300917 -0.267186
H 5.020454 1.141640 0.516730
H 2.367317 2.039991 0.783752
H 2.272545 -1.988732 -0.517220
N -2.347628 -0.010347 0.188064
C -2.818050 -1.148377 1.027531
C -2.919875 1.248513 0.734195
C -2.846738 -0.211425 -1.202856
H -2.535775 1.412497 1.757060
H -4.031375 1.185391 0.755420
H -2.610047 2.101747 0.105072
H -2.403054 -1.139540 -1.606491
H -2.528244 0.638240 -1.832642
H -3.958164 -0.279564 -1.199736
H -2.479075 -0.998203 2.068624
H -2.377848 -2.084326 0.638549
H -3.929364 -1.200159 1.004372
C -0.178879 1.657160 -0.821584
O -0.189504 2.606627 -1.523472
C -0.177398 -1.891570 -0.533804
C -0.197457 -3.039237 -1.012358
H -0.230060 -4.032830 -1.439469
