37

Ir -0.000015 -0.125375 -0.325179
H -0.000049 -0.600091 -2.030956
H -0.000043 -1.435183 -1.636562
As -2.411479 -0.197739 -0.045105
C -2.975535 -0.090050 1.822896
C -3.251126 -1.864069 -0.629266
C -3.489879 1.187465 -0.914277
H -2.439172 -0.890276 2.368328
H -4.071937 -0.215217 1.919162
H -2.664373 0.891230 2.228344
H -2.750856 -2.687813 -0.084709
H -3.080711 -1.992085 -1.715155
H -4.337101 -1.860799 -0.412214
H -3.104893 2.176091 -0.599278
H -4.559014 1.088878 -0.642726
H -3.367039 1.096452 -2.010261
As 2.411450 -0.197818 -0.045132
C 3.489950 1.186906 -0.914946
C 3.250941 -1.864495 -0.628507
C 2.975491 -0.089287 1.822825
H 3.367091 1.095402 -2.010887
H 4.559082 1.088364 -0.643363
H 3.105038 2.175701 -0.600389
H 3.080559 -1.992975 -1.714347
H 2.750546 -2.687935 -0.083605
H 4.336908 -1.861244 -0.411414
H 2.664287 0.892160 2.227837
H 4.071896 -0.214378 1.919167
H 2.439152 -0.889295 2.368600
C 0.000056 1.766530 -0.182609
N 0.000142 2.982584 -0.065476
C 0.000230 3.929265 1.012881
H -0.890299 4.589272 0.945257
H 0.890794 4.589214 0.945163
H 0.000265 3.437106 2.012008
C -0.000004 -1.751398 0.944138
N 0.000031 -2.632659 1.734018
