34

Ir -0.146024 0.404891 -0.132808
H -0.188255 0.638605 -1.970875
H -0.118943 -0.201573 -2.066355
P -2.494514 0.267536 -0.065136
C -3.097205 -0.616444 1.430214
C -3.266529 -0.655915 -1.457238
C -3.424260 1.860176 -0.029424
H -2.597838 -1.605795 1.444660
H -4.199719 -0.734348 1.421352
H -2.784933 -0.049000 2.328299
H -2.785920 -1.654129 -1.493151
H -3.059358 -0.125195 -2.407059
H -4.361608 -0.758244 -1.317835
H -3.069981 2.464046 0.829109
H -4.517083 1.693793 0.058803
H -3.209068 2.425423 -0.957189
C 1.909901 0.244774 -0.026722
C 4.139790 0.268449 -0.484964
C 3.971512 -0.335002 0.733769
H 5.044539 0.474911 -1.064236
H 4.702769 -0.758339 1.428636
C 1.994560 -0.883649 2.199562
H 1.406905 -0.097850 2.711286
H 1.306601 -1.705000 1.909929
H 2.790473 -1.256922 2.869811
C 2.601373 1.297674 -2.186675
H 3.513953 1.822896 -2.524541
H 2.287436 0.572344 -2.964545
H 1.784963 2.028872 -2.036198
N 2.873022 0.625650 -0.926920
N 2.611468 -0.332180 0.998739
C -0.152646 1.869664 0.955460
O -0.169664 2.803396 1.675471
Br -0.239328 -2.318398 -0.163058
