52

Ir -1.172980 -0.047597 0.176836
H -1.206553 -0.328748 1.943891
H -1.211222 0.590099 1.945147
N -3.342098 0.014054 0.191916
C -4.054934 -1.058159 0.615696
C -5.454576 -1.019704 0.662633
N -6.164622 0.059361 0.298272
C -5.445544 1.111973 -0.122112
C -4.044577 1.109524 -0.183406
H -3.480127 -1.945812 0.917416
H -6.013002 -1.905662 1.011447
H -5.999355 2.015081 -0.431929
H -3.446264 1.969867 -0.527801
P 1.122248 0.005708 0.043420
C 1.666633 -2.634056 0.874456
C 1.954385 -1.268472 1.096168
C 1.955835 1.572540 0.555616
C 1.364394 2.404827 1.526039
C 2.036881 3.551464 1.973570
C 3.296297 3.883425 1.448320
C 3.883834 3.062952 0.472181
C 3.218740 1.910020 0.026980
C 1.768517 -0.302240 -1.655372
C 1.107455 0.326516 -2.732383
C 1.587051 0.154782 -4.038482
C 2.715247 -0.647421 -4.281569
C 3.371137 -1.275272 -3.211527
C 2.903688 -1.102070 -1.898179
C 2.838622 -0.911204 2.133946
C 3.425507 -1.903831 2.936684
C 3.143909 -3.258217 2.705800
C 2.265381 -3.620296 1.669964
H 0.972635 -2.932046 0.074860
H 0.364029 2.161601 1.912893
H 1.564466 4.197821 2.728977
H 3.818020 4.788923 1.794851
H 4.866380 3.322024 0.048690
H 3.684141 1.274392 -0.741247
H 0.219432 0.947872 -2.531909
H 1.068672 0.647062 -4.875582
H 3.081891 -0.786986 -5.310316
H 4.252771 -1.908087 -3.396633
H 3.421332 -1.597659 -1.063057
H 3.071627 0.147598 2.319041
H 4.110614 -1.611084 3.747165
H 3.607101 -4.034539 3.334074
H 2.038211 -4.680912 1.482145
C -1.202890 -1.699275 -0.730200
O -1.228495 -2.671635 -1.390708
C -1.143387 1.904059 -0.484319
C -1.128325 3.050586 -0.959033
H -1.099729 4.053002 -1.364256
