40

Ir -0.039171 0.062652 -0.345838
H -0.063592 -0.908344 -1.745978
H 0.032815 -1.591390 -1.039453
C -2.119496 -0.001373 -0.214674
C -4.282331 0.542618 0.277021
C -4.269530 -0.762345 -0.130555
H -5.106230 1.183540 0.603557
H -5.078814 -1.492732 -0.219325
C -2.516365 -2.419863 -0.767058
H -2.007899 -2.435235 -1.749637
H -1.825951 -2.778484 0.020473
H -3.402855 -3.078762 -0.808191
C -2.574409 2.323709 0.646950
H -1.657045 2.255304 1.259508
H -2.366430 2.979848 -0.220080
H -3.391379 2.761670 1.249714
N -2.969974 0.988555 0.223540
N -2.953038 -1.073735 -0.430876
C 2.031401 0.050203 -0.139341
C 4.061288 0.147849 1.016489
C 4.321329 -0.420971 -0.382532
H 4.750198 0.971241 1.295591
H 4.859673 -1.391162 -0.366693
C 2.777672 -1.131865 -2.225628
H 2.913168 -2.235810 -2.229462
H 1.763571 -0.891763 -2.589268
H 3.517422 -0.689458 -2.929011
C 2.070145 1.232068 2.067575
H 2.630235 2.149736 2.345260
H 1.024797 1.492855 1.817668
H 2.055875 0.523471 2.922788
N 2.679563 0.619514 0.908152
N 2.960755 -0.577789 -0.906080
H 4.900057 0.278122 -1.031563
H 4.115833 -0.637284 1.805662
C 0.047070 1.861330 -0.821520
O 0.167788 2.984131 -1.159453
N -0.053060 -1.197511 1.520703
O 1.020989 -1.543665 2.045474
O -1.135981 -1.581837 1.997670
