37

Ir -0.000009 -0.274952 -0.196299
H -0.000021 -0.957075 -1.764128
H -0.000035 -1.816438 -1.338053
N -2.165238 -0.325164 -0.018353
C -2.469562 0.063103 1.388680
C -2.851004 0.583931 -0.967569
C -2.654901 -1.711741 -0.232257
H -2.498240 1.618575 -0.810670
H -3.954083 0.533439 -0.820354
H -2.598830 0.286503 -2.001894
H -2.126445 -2.367805 0.482352
H -2.423364 -2.028297 -1.265641
H -3.754076 -1.761131 -0.063247
H -2.157796 1.110133 1.550521
H -1.877028 -0.604902 2.045230
H -3.560791 -0.040985 1.588340
N 2.165217 -0.325234 -0.018365
C 2.469565 0.063095 1.388646
C 2.654815 -1.711848 -0.232190
C 2.851014 0.583781 -0.967633
H 2.126313 -2.367835 0.482455
H 3.753987 -1.761281 -0.063173
H 2.423266 -2.028449 -1.265558
H 2.498292 1.618447 -0.810791
H 2.598826 0.286305 -2.001941
H 3.954092 0.533254 -0.820421
H 1.877017 -0.604857 2.045234
H 2.157841 1.110145 1.550436
H 3.560793 -0.041024 1.588301
C 0.000027 1.571345 -0.284955
N 0.000039 2.806173 -0.368746
C 0.000125 3.819891 0.656831
H -0.889324 4.478038 0.550202
H 0.889898 4.477643 0.550437
H -0.000098 3.400245 1.689808
O 0.000005 -1.738914 1.411285
H -0.000106 -2.649824 1.068245
