37

Ir -0.240947 -0.182119 -0.231835
H -0.262514 -0.686999 -1.846885
H -0.165309 -1.574375 -1.404438
P -2.526738 -0.413791 0.027773
C -2.947892 -1.294079 1.586578
C -3.349124 -1.433397 -1.271625
C -3.556144 1.113879 0.065441
H -2.205698 -2.114619 1.682082
H -3.989421 -1.672944 1.584548
H -2.804616 -0.599466 2.437575
H -2.863866 -2.428692 -1.288736
H -3.193818 -0.952951 -2.257316
H -4.435246 -1.549158 -1.078601
H -3.210485 1.753567 0.900339
H -4.630971 0.875057 0.196745
H -3.406648 1.673357 -0.878377
As 2.191129 -0.205663 -0.022826
C 3.319078 0.921296 -1.168295
C 2.924066 -2.002129 -0.222021
C 2.809129 0.284513 1.769404
H 3.161937 0.623155 -2.222558
H 4.390298 0.821054 -0.904827
H 2.995375 1.973355 -1.049863
H 2.814364 -2.323713 -1.275126
H 2.271697 -2.621602 0.425438
H 3.985134 -2.052833 0.090158
H 2.515787 1.331268 1.975249
H 3.906289 0.165513 1.865631
H 2.290337 -0.386662 2.479327
C -0.341765 1.688776 -0.226045
N -0.405859 2.909574 -0.323222
C -0.434014 3.993466 0.617395
H -1.394218 4.547860 0.538249
H 0.371876 4.724011 0.391965
H -0.314430 3.653652 1.672127
O 0.075543 -1.844848 1.182700
H 0.017548 -1.403127 2.051192
