28

Ir -0.228531 0.161543 0.240754
H -0.263932 0.228079 1.930741
H -0.293018 -0.750767 1.842950
As 2.108623 -0.194932 -0.007642
C 2.452054 -0.700773 -1.858326
C 2.684956 -1.779922 0.970986
C 3.427329 1.188827 0.403980
H 1.670012 -1.459274 -2.060983
H 3.470223 -1.114847 -1.991820
H 2.298251 0.179370 -2.510195
H 1.955163 -2.557116 0.671168
H 2.603035 -1.593371 2.058293
H 3.718225 -2.074303 0.702958
H 3.173446 2.094496 -0.179639
H 4.449803 0.847801 0.149636
H 3.367000 1.432550 1.481721
N -2.331958 -0.050456 0.100957
C -4.568780 0.104133 0.085605
C -3.399830 0.763359 0.417372
N -4.172639 -1.115622 -0.433679
C -2.815871 -1.182871 -0.414265
H -4.789952 -1.850665 -0.778912
H -5.619913 0.394412 0.172714
H -3.254131 1.756940 0.852572
H -2.149177 -1.995362 -0.751839
C -0.172839 1.863634 -0.472495
O -0.115872 2.978074 -0.854294
F -0.167293 -1.860488 -0.612105
