39

Ir 0.280690 0.059377 -0.166484
H 0.357954 0.258213 -1.925807
H 0.367816 -0.678210 -1.861170
P -2.004611 -0.019601 -0.084019
C -2.729817 0.414760 1.567467
C -2.786047 -1.654713 -0.475175
C -2.348006 -2.281974 -1.798255
C -2.885933 1.134621 -1.247113
C -2.467918 2.602390 -1.152424
C -2.175687 -0.401966 2.736333
H -2.510698 1.493663 1.713714
H -3.834200 0.315606 1.477730
H -2.498928 -2.318035 0.365830
H -3.886310 -1.496902 -0.433186
H -2.680514 0.739076 -2.264765
H -3.976191 1.007054 -1.066758
H -1.259780 -2.488452 -1.777695
H -2.874978 -3.244204 -1.960949
H -2.566847 -1.632257 -2.670760
H -2.660198 3.028085 -0.146608
H -1.384724 2.715625 -1.356430
H -3.028236 3.216528 -1.886536
H -2.397208 -1.482582 2.631201
H -1.073701 -0.303610 2.792105
H -2.614816 -0.054461 3.693570
N 2.444851 0.001355 -0.148891
C 4.570363 -0.700478 0.033948
C 3.248503 -1.084019 0.144444
N 4.547161 0.633998 -0.328810
C 3.248404 1.026874 -0.431308
H 5.359130 1.230511 -0.488858
H 5.503801 -1.251750 0.181186
H 2.793604 -2.043536 0.417854
H 2.918009 2.035852 -0.699129
C 0.272134 1.694985 0.755913
O 0.258490 2.673004 1.414707
C 0.278188 -1.891757 0.532778
C 0.289848 -3.044291 0.993554
H 0.306843 -4.042281 1.410320
