39

Ir -0.011648 -0.189399 -0.056217
H 0.009983 -0.741923 -1.766702
H -0.013976 -1.561059 -1.443553
N -2.199436 -0.290515 -0.121295
C -4.991314 -0.517254 -0.261594
C -4.337509 0.611785 -0.777323
C -2.943102 0.688082 -0.687752
C -2.823554 -1.383904 0.380419
C -4.215158 -1.526732 0.326478
H -6.087204 -0.607608 -0.319457
H -4.895933 1.433437 -1.248956
H -2.380958 1.548934 -1.078264
H -2.105050 -2.110465 0.825755
H -4.679496 -2.431586 0.746084
C 1.990388 -0.190381 -0.066084
C 4.185043 -1.020791 -0.250570
C 4.246714 0.487265 -0.029328
H 4.849338 -1.595971 0.426262
H 4.910511 1.011980 -0.746957
C 2.527592 2.273037 -0.349834
H 3.336572 2.771584 -0.923171
H 1.576154 2.380912 -0.901237
H 2.424938 2.784933 0.633095
C 2.346122 -2.695163 -0.085876
H 1.306652 -2.776976 0.321298
H 2.392560 -3.046462 -1.144470
H 3.029287 -3.331457 0.515019
N 2.778384 -1.313633 0.019073
N 2.850068 0.871880 -0.222927
H 4.588284 0.748114 1.001756
H 4.443192 -1.304915 -1.300483
C -0.183998 1.569642 0.469826
N -0.446797 2.649690 1.005608
C -0.616706 3.968381 0.457787
H 0.174371 4.651045 0.839537
H -1.587155 4.400135 0.783932
H -0.584530 3.993472 -0.657318
O -0.228609 -2.095959 1.037161
H 0.035558 -1.870470 1.949136
