54

Ir 1.102722 -0.092946 0.287144
H 1.065096 -0.088679 1.962196
H 1.054073 -1.084185 1.812450
N 3.227695 -0.253762 0.239983
C 4.072121 0.703359 0.692084
C 5.459045 0.512057 0.632898
N 6.020163 -0.600803 0.134986
C 5.164151 -1.535963 -0.312693
C 3.772189 -1.386508 -0.270080
H 3.615781 1.620284 1.092954
H 6.134983 1.300328 1.008149
H 5.598054 -2.460846 -0.730637
H 3.028882 -2.127897 -0.625533
P -1.181954 -0.083667 0.082838
C -2.169877 2.564981 -0.156622
C -1.942352 1.471756 0.704802
C -2.026331 -1.474065 0.952484
C -1.361698 -2.720780 0.950510
C -1.985871 -3.834451 1.532965
C -3.259522 -3.716064 2.114080
C -3.924355 -2.479241 2.098815
C -3.314693 -1.358531 1.512670
C -1.779747 -0.315788 -1.647460
C -0.941566 -1.014153 -2.543007
C -1.387612 -1.265947 -3.850123
C -2.656023 -0.831346 -4.268047
C -3.498929 -0.160582 -3.366246
C -3.068384 0.089656 -2.054295
C -2.121230 1.642919 2.094342
C -2.553105 2.874826 2.606643
C -2.795941 3.954409 1.741435
C -2.598312 3.797250 0.360811
H -2.004213 2.456567 -1.238899
H -0.372461 -2.800431 0.459385
H -1.468933 -4.806609 1.530413
H -3.740058 -4.592774 2.575586
H -4.926669 -2.383668 2.544379
H -3.846308 -0.394844 1.496207
H 0.026271 -1.402115 -2.173384
H -0.735279 -1.814245 -4.547426
H -2.996284 -1.026479 -5.297013
H -4.501380 0.166363 -3.683255
H -3.741105 0.601435 -1.348885
H -1.911436 0.808866 2.781663
H -2.694323 2.993478 3.691874
H -3.132775 4.921361 2.145503
H -2.775697 4.641812 -0.323061
C 1.158694 1.683403 -0.297488
N 1.212844 2.887620 -0.485395
C 1.154352 3.804034 -1.583299
H 0.263076 4.459059 -1.476929
H 1.098849 3.290281 -2.568926
H 2.043739 4.468267 -1.580143
F 1.126987 -2.066245 -0.661938
