24

Ir -0.008121 -0.349520 -0.162573
H -0.014711 -0.441969 -1.925805
H -0.007156 0.461999 -1.840855
N 2.067984 -0.361806 -0.200120
C 4.197721 -1.057713 -0.399805
C 2.878280 -1.460607 -0.435345
N 4.163384 0.299566 -0.141134
C 2.869067 0.694495 -0.021753
H 4.969809 0.917076 -0.047201
H 5.131685 -1.611199 -0.532872
H 2.451285 -2.452773 -0.607661
H 2.497073 1.709139 0.189203
N -2.081554 -0.295809 -0.197033
C -4.207218 0.426820 -0.285704
C -2.888434 0.830891 -0.249462
N -4.183954 -0.954757 -0.251655
C -2.888103 -1.362827 -0.201626
H -4.994515 -1.573784 -0.256790
H -5.138863 0.998473 -0.326748
H -2.433536 1.829766 -0.229196
H -2.560895 -2.406249 -0.161940
C -0.032459 -1.779878 0.992652
O -0.070490 -2.717148 1.707707
Br 0.055855 2.361780 0.392347
