37

Ir -0.015814 0.020622 -0.078703
H -0.054052 -0.011107 -1.777301
H 0.017547 -0.972866 -1.640918
C -2.091525 -0.055837 -0.070597
C -4.321686 0.409631 0.137936
C -4.211557 -0.839471 -0.409332
H -5.202318 0.999103 0.409524
H -4.977612 -1.559188 -0.712594
C -2.323598 -2.358384 -1.065774
H -2.051624 -2.232093 -2.133890
H -1.420084 -2.615746 -0.458020
H -3.099802 -3.141923 -0.976754
C -2.727015 2.166172 0.925501
H -2.029399 2.047132 1.775181
H -2.253653 2.838262 0.184650
H -3.668532 2.622251 1.283230
N -3.027820 0.870427 0.339825
N -2.857155 -1.110190 -0.524170
C 2.066601 -0.133125 -0.054581
C 4.257410 0.066541 -0.661217
C 4.212776 -0.623773 0.520682
H 5.102984 0.363643 -1.288576
H 5.013658 -1.043014 1.136951
C 2.398837 -1.345242 2.109674
H 1.412755 -1.820728 1.871125
H 3.138557 -2.095691 2.446975
H 2.275493 -0.569495 2.892910
C 2.548480 1.090457 -2.188757
H 2.116032 0.401264 -2.942379
H 1.782522 1.844971 -1.930945
H 3.437773 1.589203 -2.617227
N 2.942620 0.366167 -0.991123
N 2.876599 -0.733127 0.873642
C 0.211607 1.767699 0.474360
O 0.482449 2.884444 0.756030
O -0.134574 -2.006729 0.840378
H -0.767245 -1.874565 1.572328
