33

Ir -0.195461 -0.150108 -0.262837
H -0.144997 -0.770322 -1.892976
H -0.144715 -1.587499 -1.468140
N -2.371318 -0.168338 -0.247002
C -2.828008 0.062347 1.153639
C -2.938439 0.879923 -1.134328
C -2.876212 -1.499122 -0.689819
H -2.585268 1.874454 -0.808029
H -4.051185 0.846871 -1.103560
H -2.590106 0.710394 -2.169262
H -2.414307 -2.278051 -0.053606
H -2.585682 -1.667496 -1.742856
H -3.985178 -1.530066 -0.606227
H -2.488089 1.059111 1.486797
H -2.368510 -0.710329 1.799192
H -3.938908 0.008179 1.205482
N 1.857603 -0.210610 -0.185418
C 4.154513 0.286206 -0.460414
O 3.925212 -0.886191 0.381000
C 2.600465 -1.033409 0.486539
C 2.744367 0.701208 -0.935302
H 2.577197 0.553681 -2.021936
H 2.479693 1.750509 -0.697881
H 4.839524 -0.011988 -1.277834
H 4.655053 1.053416 0.164997
H 2.183764 -1.834615 1.121556
C -0.161761 1.667043 0.081673
N -0.115870 2.889245 0.219141
C -0.116491 3.750631 1.373884
H 0.780234 4.405993 1.363588
H -0.129914 3.189600 2.335450
H -0.999221 4.424799 1.348237
Cl -0.264947 -2.194109 1.320303
