27

Ir -0.000330 -0.583587 -0.180560
H -0.001073 -0.633701 -2.024578
H -0.024572 0.227529 -1.956755
N 2.055561 -0.575745 -0.194898
C 2.736905 0.291827 -0.997290
C 4.135488 0.342213 -0.985685
N 4.895373 -0.432371 -0.197058
C 4.217242 -1.276285 0.596968
C 2.821335 -1.362759 0.610609
H 2.139982 0.960475 -1.631170
H 4.650146 1.056990 -1.650542
H 4.801706 -1.929604 1.267444
H 2.300383 -2.067029 1.271661
N -2.094465 -0.489766 -0.180967
C -4.895431 -0.314007 -0.199367
C -4.212506 -0.991709 -1.220094
C -2.817924 -1.067913 -1.171703
C -2.750929 0.166104 0.810321
C -4.146051 0.266320 0.832341
H -5.993550 -0.243537 -0.207318
H -4.747979 -1.470509 -2.052104
H -2.241431 -1.609272 -1.934910
H -2.117548 0.629605 1.579649
H -4.627700 0.807489 1.659010
C -0.111467 -2.064230 0.903413
O -0.217300 -2.986404 1.626097
I 0.071136 2.257487 0.292592
