50

Ir 0.011236 0.061709 0.216481
H 0.032333 -0.024846 1.902040
H 0.054345 -0.995249 1.727860
P 2.344360 -0.133892 -0.001296
C 3.077619 0.876464 -1.374645
C 2.840470 -1.866809 -0.415995
C 2.432578 -2.909288 0.626624
C 3.373408 0.323592 1.473187
C 3.129881 1.748697 1.976112
C 2.431575 0.615832 -2.737199
H 2.934703 1.936929 -1.077303
H 4.173196 0.685557 -1.393900
H 2.308592 -2.082856 -1.364983
H 3.935335 -1.861077 -0.613262
H 3.107607 -0.415422 2.258465
H 4.441879 0.153579 1.215189
H 1.327527 -2.930734 0.686838
H 2.782449 -3.915714 0.318639
H 2.856025 -2.704119 1.631360
H 3.426387 2.510361 1.226569
H 2.056226 1.908129 2.202858
H 3.713016 1.946747 2.898144
H 2.615187 -0.418178 -3.091732
H 1.333034 0.758960 -2.680333
H 2.834165 1.310694 -3.501561
P -2.323571 -0.093561 0.023557
C -3.079308 -1.393424 1.110100
C -2.759083 -0.615631 -1.694562
C -2.479921 0.443298 -2.762348
C -3.311137 1.434200 0.369961
C -3.111478 1.982121 1.785428
C -2.628792 -2.814302 0.746249
H -2.759909 -1.128133 2.139884
H -4.185854 -1.281007 1.073380
H -2.096790 -1.496611 -1.838577
H -3.818209 -0.953374 -1.706756
H -2.979164 2.181289 -0.381298
H -4.380174 1.210258 0.160758
H -1.428779 0.791886 -2.700335
H -2.638980 0.022454 -3.775799
H -3.139441 1.330082 -2.665147
H -3.471982 1.273811 2.559031
H -2.037832 2.178926 1.981499
H -3.665083 2.933092 1.921412
H -3.174691 -3.189145 -0.142962
H -1.549704 -2.827617 0.484942
H -2.826123 -3.516786 1.580617
C 0.030136 1.844018 -0.260964
O 0.046980 2.999075 -0.499697
F -0.111980 -1.859656 -0.788069
