30

Ir 0.094947 -0.155541 -0.215004
H 0.066517 -0.183929 -1.901394
H 0.087930 -1.169313 -1.743383
N -1.944649 -0.235884 -0.106490
C -2.498336 -1.373224 0.400141
C -3.888909 -1.491915 0.494516
N -4.744723 -0.528107 0.109015
C -4.177971 0.585774 -0.379383
C -2.792408 0.751007 -0.495048
H -1.754422 -2.133472 0.714119
H -4.323082 -2.419462 0.905965
H -4.849564 1.399942 -0.703868
H -2.333711 1.663888 -0.899335
N 2.143264 -0.331484 -0.119090
C 4.489963 -0.073379 -0.124240
O 4.062255 -1.360909 0.420779
C 2.728120 -1.379092 0.372664
C 3.173014 0.650288 -0.494002
H 3.084607 0.889124 -1.573204
H 3.004977 1.588040 0.073889
H 5.147424 -0.278133 -0.992434
H 5.080156 0.442774 0.658701
H 2.143491 -2.240440 0.745786
C 0.141047 1.574394 0.487454
N 0.169819 2.701833 0.965056
C 0.131037 4.041275 0.448754
H -0.750499 4.582043 0.854019
H 0.084846 4.076673 -0.663894
H 1.027594 4.607111 0.780103
F 0.141716 -2.101802 0.747715
