29

Ir 0.000000 0.289236 -0.262278
H 0.000001 0.509744 -1.940892
H 0.000000 -0.486592 -1.869809
P -2.304889 0.244921 -0.153410
C -5.421319 0.195422 -0.019189
C -4.770135 1.441636 0.008671
C -3.378485 1.600379 -0.050409
C -3.337071 -1.144742 -0.168761
C -4.731117 -1.028330 -0.104030
H -6.520589 0.176150 0.030218
H -5.389515 2.351614 0.078941
H -2.928518 2.605145 -0.024342
H -2.836192 -2.125203 -0.207808
H -5.322412 -1.959472 -0.115731
P 2.304889 0.244921 -0.153410
C 5.421319 0.195422 -0.019189
C 4.731117 -1.028330 -0.104030
C 3.337071 -1.144742 -0.168760
C 3.378485 1.600379 -0.050410
C 4.770135 1.441636 0.008670
H 6.520589 0.176150 0.030218
H 5.322412 -1.959472 -0.115729
H 2.836192 -2.125204 -0.207806
H 2.928518 2.605145 -0.024343
H 5.389515 2.351614 0.078940
C 0.000000 1.870994 0.760494
N 0.000000 2.983664 1.270137
H 0.000000 3.165141 2.280464
Br 0.000000 -2.279643 0.495889
