32

Ir 0.112080 0.072484 -0.205298
H 0.180021 -0.410308 -1.873248
H 0.246806 -1.268440 -1.407659
C -1.900222 -0.042581 -0.111685
C -4.113929 0.365125 0.267534
C -4.009660 -0.909394 -0.212445
H -4.988195 0.945177 0.576053
H -4.774527 -1.667035 -0.404714
C -2.147315 -2.436034 -0.880552
H -1.682368 -2.347890 -1.882118
H -1.389913 -2.804141 -0.161014
H -2.990241 -3.148980 -0.932974
C -2.528850 2.197128 0.867418
H -1.701900 2.124207 1.597719
H -2.233698 2.902188 0.066686
H -3.432825 2.583019 1.373346
N -2.825472 0.878446 0.331405
N -2.661028 -1.148490 -0.433753
N 2.265222 -0.030769 -0.139079
C 4.443956 -0.904675 0.189608
O 4.437874 0.548759 0.016718
C 3.155747 0.904307 -0.105837
C 2.980035 -1.323211 -0.057744
H 2.536656 -1.931383 0.755340
H 2.829004 -1.871721 -1.011381
H 4.792274 -1.113019 1.221928
H 5.170732 -1.327977 -0.529985
H 2.942491 1.981565 -0.171120
C 0.240898 1.949254 -0.147773
O 0.500816 3.098887 -0.103745
C 0.136246 -1.392858 1.263945
N 0.194794 -2.249194 2.077492
