28

Ir 0.094842 0.231409 -0.237356
H 0.080516 0.308196 -1.989730
H 0.071696 -0.624389 -1.881713
N -1.969073 0.125436 -0.159865
C -2.767343 0.333640 -1.235641
C -4.154926 0.184265 -1.137437
N -4.770713 -0.143354 0.011117
C -3.971795 -0.339491 1.067511
C -2.573604 -0.226424 1.002340
H -2.273963 0.629447 -2.171976
H -4.785062 0.346036 -2.028628
H -4.447634 -0.607587 2.026260
H -1.923761 -0.413139 1.864864
N 2.153745 0.153509 -0.243198
C 4.443283 0.399053 0.302500
O 4.182862 -0.769614 -0.532315
C 2.872603 -0.789361 -0.771112
C 3.043860 0.989176 0.585481
H 2.945846 2.053950 0.295747
H 2.735878 0.896846 1.647115
H 5.104558 1.078872 -0.271859
H 4.978352 0.054672 1.208402
H 2.484827 -1.601725 -1.397178
C 0.076398 1.875774 0.643651
O 0.051666 2.894838 1.228674
N 0.170267 -1.883040 0.513165
O 1.234979 -2.521460 0.505154
O -0.866327 -2.387179 0.971342
