28

Ir -0.277285 -0.417792 -0.151762
H -0.512158 -1.096441 -1.711211
H -0.296699 -0.188157 -1.968494
N 1.773386 -0.725991 -0.210627
C 2.405206 -1.288112 -1.273673
C 3.800512 -1.362635 -1.316604
N 4.587237 -0.896422 -0.332040
C 3.953348 -0.344660 0.709098
C 2.555252 -0.254171 0.791146
H 1.774287 -1.673642 -2.085714
H 4.292860 -1.821397 -2.191054
H 4.565681 0.064074 1.530266
H 2.050892 0.208434 1.649675
N -2.293810 0.079878 -0.124177
C -2.683383 1.366541 -0.321148
C -4.044709 1.697285 -0.349191
N -5.024642 0.795526 -0.183442
C -4.623158 -0.468350 0.019604
C -3.274147 -0.843469 0.049251
H -1.867098 2.098428 -0.436689
H -4.340406 2.747669 -0.513278
H -5.402367 -1.236317 0.164681
H -2.958106 -1.883889 0.206340
C -0.461759 -1.604529 1.273425
O -0.570365 -2.392480 2.136064
N 0.233749 1.722285 -0.107913
C 1.211397 2.380100 0.149922
S 2.540261 3.224756 0.516815
