31

Ir 0.153794 0.035608 -0.167857
H 0.255239 -0.394222 -1.856041
H 0.274732 -1.259893 -1.421000
C -1.860535 0.004537 -0.138693
C -4.066748 0.491198 0.196204
C -4.003041 -0.756850 -0.354921
H -4.924171 1.092150 0.511941
H -4.793786 -1.466249 -0.614718
C -2.188556 -2.327904 -1.051091
H -1.689049 -2.207232 -2.032506
H -1.470288 -2.768248 -0.331900
H -3.059581 -2.998510 -1.166902
C -2.422049 2.208635 0.954230
H -1.621932 2.053586 1.701449
H -2.069903 2.946344 0.207689
H -3.323537 2.604603 1.456996
N -2.759478 0.939920 0.329937
N -2.659521 -1.044963 -0.548227
N 2.318308 -0.121218 -0.087494
C 4.397069 -0.825684 0.395966
C 3.054087 -1.061494 0.612059
N 4.457401 0.272097 -0.442462
C 3.186387 0.672805 -0.715367
H 5.305072 0.716451 -0.795408
H 5.293044 -1.334746 0.762987
H 2.550333 -1.822662 1.219244
H 2.924463 1.528622 -1.346025
C 0.368285 1.896928 0.017472
O 0.673165 3.028829 0.144508
C 0.068396 -1.503518 1.214330
N 0.060737 -2.396458 1.989964
