27

Ir -0.000002 0.027581 -0.109965
H -0.000021 0.471674 -1.807404
H -0.000020 -0.506158 -1.834174
N -2.088500 0.014272 -0.131964
C -2.771556 1.147176 -0.443747
C -4.170277 1.152037 -0.502662
N -4.913882 0.061070 -0.264793
C -4.228901 -1.050199 0.043019
C -2.829554 -1.096906 0.118204
H -2.170809 2.044308 -0.647297
H -4.698458 2.087245 -0.756301
H -4.807264 -1.967325 0.247565
H -2.276082 -2.011399 0.377780
N 2.088496 0.014269 -0.131979
C 2.829554 -1.096870 0.118347
C 4.228901 -1.050163 0.043166
N 4.913877 0.061069 -0.264795
C 4.170267 1.151998 -0.502819
C 2.771545 1.147136 -0.443910
H 2.276085 -2.011333 0.378034
H 4.807270 -1.967257 0.247842
H 4.698444 2.087174 -0.756583
H 2.170791 2.044236 -0.647578
C 0.000016 1.520719 1.060059
O 0.000031 2.405611 1.829419
C 0.000007 -1.976699 0.409163
N 0.000007 -3.111987 0.741691
