29

Ir 0.157635 0.161057 0.211788
H 0.144264 0.268789 1.929199
H 0.215136 -0.703467 1.788354
N 2.284587 0.164753 0.211432
C 3.032461 0.307969 1.330027
C 4.429676 0.256225 1.265146
N 5.094204 0.086954 0.109683
C 4.341974 -0.047575 -0.988797
C 2.936695 -0.025923 -0.959497
H 2.496340 0.468415 2.276043
H 5.024837 0.361842 2.188149
H 4.861908 -0.184348 -1.952340
H 2.324962 -0.161397 -1.859028
P -2.111728 0.075347 0.100429
C -5.227540 0.023421 0.066301
C -4.574753 1.241072 -0.198120
C -3.182742 1.401874 -0.203593
C -3.140981 -1.283156 0.397474
C -4.536449 -1.169013 0.347635
H -6.327638 0.002908 0.050764
H -5.193190 2.128886 -0.411630
H -2.738483 2.387193 -0.413402
H -2.639299 -2.243668 0.584367
H -5.127558 -2.080277 0.539669
C 0.131613 1.819750 -0.678107
O 0.147699 2.847996 -1.239214
N 0.326013 -1.934729 -0.590034
O -0.595760 -2.741912 -0.431384
O 1.360987 -2.248987 -1.194728
