27

Ir 0.092567 0.065098 -0.138567
H 0.052989 0.114653 -1.842696
H 0.049328 -0.855197 -1.701109
N -1.968070 0.068093 -0.127321
C -2.660493 -1.103675 -0.151592
C -4.059929 -1.101318 -0.213694
N -4.797438 0.019776 -0.245619
C -4.100713 1.166948 -0.204781
C -2.703225 1.212637 -0.149212
H -2.051191 -2.021279 -0.084441
H -4.597020 -2.065256 -0.236642
H -4.671007 2.111889 -0.222949
H -2.148487 2.160371 -0.123427
N 2.158812 0.009155 -0.192135
C 4.437833 0.596314 -0.438869
O 4.248992 -0.783439 0.008072
C 2.935575 -0.978992 0.126272
C 3.003253 1.139170 -0.627908
H 2.757999 1.393048 -1.679152
H 2.774057 2.029503 -0.008970
H 5.037456 0.569410 -1.369640
H 5.015946 1.124603 0.345584
H 2.550091 -1.949858 0.485276
C 0.161844 1.633291 0.861883
N 0.208247 2.750976 1.382631
H 0.240200 2.866418 2.404832
Cl 0.151431 -2.326210 0.806053
