29

Ir -0.002378 -0.158342 -0.246604
H -0.001291 -0.676938 -1.914558
H -0.013104 -1.516786 -1.496281
N -2.077569 -0.120607 -0.259790
C -4.200771 0.500902 -0.669634
C -2.875452 0.827539 -0.877815
N -4.182786 -0.658447 0.083793
C -2.890371 -1.010413 0.319132
H -4.996903 -1.173585 0.418003
H -5.128979 0.984380 -0.987926
H -2.432565 1.671661 -1.414421
H -2.512922 -1.861792 0.909764
N 2.071615 -0.187379 -0.242407
C 4.217049 -0.764652 0.093783
C 2.908286 -1.125731 0.341267
N 4.156774 0.404800 -0.642559
C 2.847847 0.727882 -0.830317
H 4.950279 0.941774 -0.991509
H 5.165166 -1.231080 0.377283
H 2.462105 -1.958173 0.904004
H 2.485450 1.611451 -1.364709
C 0.033557 1.651640 0.185448
N 0.077503 2.859475 0.424720
C 0.078678 3.580333 1.674328
H -0.801550 4.256685 1.726044
H 0.978855 4.228328 1.742209
H 0.059682 2.910729 2.563951
S -0.062591 -2.197541 1.319230
H -0.061328 -3.243545 0.445545
