33

Ir -0.170995 -0.137857 0.142727
H -0.120604 -0.976742 1.597944
H -0.182927 -0.055200 1.977253
N -2.298800 -0.126134 0.175378
C -4.435315 0.862016 0.315150
O -4.465921 -0.443524 -0.352501
C -3.187699 -0.838185 -0.431728
C -3.006704 0.969821 0.872900
H -2.941739 0.782305 1.966322
H -2.451009 1.906890 0.656504
H -5.233057 0.869797 1.081782
H -4.664122 1.628312 -0.455599
H -2.978343 -1.745997 -1.016656
C 1.824105 0.109958 0.085284
C 4.112860 -0.154219 0.510713
C 3.911454 1.002881 -0.473767
H 4.407654 0.203741 1.526167
H 4.243079 0.740572 -1.506718
C 1.839259 2.214398 -1.261743
H 1.859705 1.935209 -2.339817
H 0.795728 2.357023 -0.896551
H 2.403914 3.160057 -1.131068
C 2.543120 -1.927102 1.357054
H 2.535916 -1.693416 2.447283
H 1.565704 -2.365741 1.085325
H 3.342755 -2.671317 1.163703
N 2.776285 -0.750864 0.552299
N 2.458823 1.183991 -0.447725
H 4.437276 1.932640 -0.175411
H 4.872528 -0.890955 0.177650
C -0.081599 -1.295685 -1.295852
O -0.032505 -2.102222 -2.155513
F -0.489940 2.005725 0.320923
