54

Ir 1.366145 -0.142908 0.208955
H 1.321682 0.050463 2.028583
H 1.388991 0.896662 1.909277
P -0.897181 -0.013482 0.028777
C -1.379340 -2.596340 1.005614
C -1.804862 -1.623253 0.076899
C -1.485281 0.784487 -1.526556
C -0.708078 0.646502 -2.694017
C -1.155124 1.196324 -3.903662
C -2.371624 1.897219 -3.954541
C -3.141663 2.048829 -2.790293
C -2.701648 1.495264 -1.577289
C -1.711663 0.974262 1.363435
C -1.244065 2.286383 1.601318
C -1.841674 3.068358 2.600020
C -2.898022 2.553706 3.371261
C -3.360922 1.249811 3.137540
C -2.773159 0.459832 2.135360
C -2.910712 -1.894603 -0.753184
C -3.584506 -3.122637 -0.649374
C -3.164680 -4.082717 0.284501
C -2.061089 -3.816424 1.112442
H -0.494436 -2.392619 1.628791
H 0.258113 0.122105 -2.631425
H -0.540726 1.090654 -4.810975
H -2.715856 2.336615 -4.903588
H -4.089896 2.607294 -2.822858
H -3.303146 1.624089 -0.664231
H -0.408899 2.684324 0.997544
H -1.474294 4.090894 2.778309
H -3.360660 3.170653 4.157256
H -4.187569 0.839396 3.737931
H -3.144639 -0.560040 1.956300
H -3.245715 -1.147404 -1.487902
H -4.443430 -3.328921 -1.306527
H -3.694042 -5.044963 0.362607
H -1.719636 -4.569800 1.838760
N 3.639038 -0.156789 0.266464
C 4.103993 0.076220 -1.124171
C 4.142457 0.938374 1.132633
C 4.157423 -1.451135 0.766976
H 3.698834 1.893254 0.790955
H 5.253937 0.985982 1.083453
H 3.836579 0.749523 2.178413
H 3.798991 -2.275502 0.124628
H 3.783145 -1.624463 1.792873
H 5.271936 -1.443917 0.776714
H 3.673749 1.031191 -1.481867
H 3.745907 -0.744851 -1.771737
H 5.217300 0.117106 -1.158507
C 1.363997 -1.797928 -0.576307
N 1.402882 -2.942487 -1.039267
H 1.394694 -3.115846 -2.052478
Cl 1.548918 2.300940 -0.493737
