32

Ir 0.097848 -0.485733 -0.231967
H 0.040127 -1.029883 -1.852854
H 0.190536 -0.084897 -2.009076
P 2.435561 -0.706728 -0.122451
C 3.144558 -0.139675 1.469612
C 3.340138 0.258771 -1.392319
C 3.043291 -2.429620 -0.322622
H 2.969398 0.950646 1.572104
H 4.234944 -0.338972 1.496538
H 2.642041 -0.670188 2.300560
H 3.167043 1.340108 -1.214817
H 2.966972 -0.012578 -2.398412
H 4.426656 0.048474 -1.325753
H 2.600441 -3.066613 0.467623
H 4.149214 -2.469274 -0.256574
H 2.714672 -2.818061 -1.306083
P -2.174852 0.018265 -0.120434
C -5.177750 0.847008 0.089096
C -4.199266 1.859521 0.084319
C -2.822834 1.620742 -0.003012
C -3.558700 -1.022736 -0.095177
C -4.864686 -0.520996 0.004942
H -6.235982 1.139615 0.163963
H -4.534887 2.907747 0.156929
H -2.092745 2.445106 0.006779
H -3.385526 -2.108534 -0.157169
H -5.694978 -1.246905 0.018174
C -0.084985 -1.957236 0.901512
O -0.170951 -2.921353 1.563819
N 0.470371 1.618251 0.060998
C 1.270354 2.499544 0.225958
S 2.370714 3.668360 0.445712
