47

Ir -0.153288 -0.274763 -0.098452
H -0.151163 -1.267854 -1.511316
H -0.152055 -0.449540 -1.963117
P 2.218888 -0.296163 -0.064623
C 2.949920 0.170277 1.577197
C 3.083404 0.846682 -1.246245
C 2.586896 0.772101 -2.690765
C 3.030577 -1.929719 -0.432521
C 2.466934 -3.118922 0.346661
C 2.373383 1.451685 2.184662
H 2.760387 -0.694534 2.248359
H 4.051508 0.239331 1.439954
H 2.953358 1.876414 -0.853759
H 4.166570 0.605312 -1.170333
H 2.901002 -2.086146 -1.524988
H 4.121550 -1.804380 -0.255775
H 1.522660 1.075182 -2.745518
H 3.171636 1.459822 -3.334535
H 2.681189 -0.246921 -3.120276
H 2.568236 -2.987155 1.443082
H 1.387922 -3.253463 0.133704
H 2.996399 -4.054249 0.073248
H 2.518666 2.337039 1.533521
H 1.283197 1.343193 2.352387
H 2.853089 1.665808 3.161189
C -2.213281 -0.061759 -0.082305
C -4.330266 0.808267 0.430741
C -4.476199 -0.245013 -0.676319
H -4.772778 0.475727 1.398943
H -4.730418 0.209869 -1.662030
C -2.859267 -1.939200 -1.608491
H -2.734975 -1.612930 -2.666489
H -1.931905 -2.445033 -1.282142
H -3.698576 -2.662796 -1.561648
C -2.324452 1.860868 1.519482
H -2.682452 1.620139 2.545978
H -1.223351 1.805948 1.478026
H -2.634049 2.896076 1.267101
N -2.875270 0.927032 0.561892
N -3.133193 -0.832764 -0.721941
H -5.242658 -1.015449 -0.452220
H -4.787756 1.784700 0.169813
C -0.205684 -1.217870 1.489195
O -0.227423 -1.835371 2.492390
N -0.028299 1.849592 -0.614564
C 0.668802 2.828660 -0.485599
O 1.362094 3.813090 -0.382749
