35

Ir 0.105168 0.209032 -0.222302
H 0.094737 0.455224 -1.922677
H 0.157689 -0.511447 -1.883405
P -2.210134 0.023094 -0.150329
C -5.328880 -0.268396 0.024610
C -4.765666 1.013777 0.154206
C -3.390348 1.275386 0.086010
C -3.155002 -1.427553 -0.268987
C -4.551894 -1.424709 -0.178212
H -6.422827 -0.372228 0.088232
H -5.445993 1.866931 0.316956
H -3.019003 2.307027 0.193381
H -2.581006 -2.360593 -0.392751
H -5.074328 -2.392745 -0.265507
C 2.155327 0.076728 -0.053133
C 4.438058 -0.118441 -0.572634
C 4.204373 -0.551442 0.880068
H 4.958540 -0.890112 -1.176710
H 4.893054 -0.064716 1.600884
C 2.222687 -0.421549 2.402139
H 2.886410 -0.031293 3.200849
H 1.237701 0.074129 2.464593
H 2.068360 -1.514815 2.536248
C 2.851880 0.476029 -2.434781
H 2.699778 -0.409625 -3.090111
H 1.964877 1.130753 -2.512702
H 3.735895 1.036058 -2.803649
N 3.070358 0.101247 -1.055543
N 2.816464 -0.144055 1.112386
H 4.294018 -1.655122 1.009171
H 5.024336 0.826606 -0.650835
C 0.085389 1.808971 0.745029
O 0.093507 2.826504 1.332031
S 0.204300 -2.291940 0.330152
H -0.238347 -2.210065 1.617765
