52

Ir 1.161251 -0.084229 0.104376
H 1.203844 -0.532070 1.811635
H 1.212344 0.419277 1.852435
P -1.133523 -0.011302 0.045066
C -1.391868 -2.721190 0.746846
C -1.956990 -1.665781 0.000220
C -1.861570 0.893063 -1.384366
C -1.175486 0.895517 -2.614698
C -1.739892 1.531730 -3.729402
C -2.982870 2.176636 -3.621570
C -3.663552 2.185845 -2.393516
C -3.106949 1.546326 -1.274941
C -1.874996 0.815281 1.519570
C -1.513129 2.154361 1.790403
C -2.060031 2.811498 2.901320
C -2.959247 2.145008 3.751705
C -3.316676 0.814884 3.484738
C -2.779998 0.149153 2.370001
C -3.143514 -1.890172 -0.727243
C -3.756396 -3.153045 -0.702504
C -3.195858 -4.197103 0.049978
C -2.013000 -3.978205 0.775232
H -0.449282 -2.550892 1.290316
H -0.186617 0.416642 -2.681481
H -1.195620 1.536333 -4.685983
H -3.418091 2.684763 -4.495905
H -4.632055 2.700934 -2.301043
H -3.638395 1.564966 -0.311101
H -0.801241 2.678729 1.132793
H -1.775801 3.855340 3.104682
H -3.381869 2.665043 4.625308
H -4.020805 0.286653 4.145965
H -3.069762 -0.891859 2.163790
H -3.588000 -1.078938 -1.322485
H -4.677751 -3.321151 -1.281022
H -3.677776 -5.186827 0.065178
H -1.563665 -4.795180 1.360421
N 3.345798 -0.032685 0.144210
C 6.152364 -0.029935 0.260414
C 5.423084 -1.187274 0.569026
C 4.026977 -1.149575 0.499402
C 4.047105 1.087317 -0.158168
C 5.445445 1.122573 -0.108522
H 7.252010 -0.027930 0.305476
H 5.922607 -2.121761 0.862230
H 3.410295 -2.030139 0.730648
H 3.446248 1.966719 -0.438407
H 5.963945 2.058259 -0.362561
C 1.205764 -1.557081 -1.074836
O 1.251627 -2.430014 -1.858352
C 1.137500 1.935698 -0.317132
N 1.163007 3.087717 -0.585463
