35

Ir -0.265257 0.025847 -0.325834
H -0.312774 0.176305 -2.031113
H -0.240522 1.110732 -1.821688
As 2.111259 -0.175579 -0.265874
C 2.872726 -0.150842 1.535191
C 3.100842 1.271592 -1.131710
C 2.867439 -1.798220 -1.053647
H 2.684976 0.850762 1.968976
H 3.962485 -0.345423 1.497925
H 2.364934 -0.920304 2.146041
H 2.919432 2.198234 -0.552729
H 2.727486 1.400379 -2.164959
H 4.184398 1.042973 -1.142454
H 2.384441 -2.671141 -0.574687
H 3.964706 -1.835727 -0.909036
H 2.625244 -1.811681 -2.133284
N -2.363190 0.306422 -0.198832
C -4.713352 0.043891 -0.258003
O -4.299595 1.318519 0.325442
C -2.962636 1.327577 0.318768
C -3.387494 -0.637478 -0.674081
H -3.281595 -0.772077 -1.770108
H -3.224321 -1.627723 -0.203092
H -5.393230 0.264432 -1.104236
H -5.276523 -0.512362 0.518388
H -2.418513 2.185953 0.746733
C -0.400992 -1.725325 0.299181
N -0.488435 -2.911694 0.602122
C -0.492775 -3.627773 1.849986
H -0.406591 -2.957224 2.734713
H 0.346908 -4.354476 1.876752
H -1.426400 -4.221056 1.949244
N -0.123825 1.986920 0.684449
C 0.797832 2.638891 1.126856
O 1.713006 3.291220 1.567340
