39

Ir 0.011787 -0.057010 -0.278869
H 0.001379 -1.369396 -1.362399
H 0.054281 -1.849620 -0.514304
C -2.067431 0.014833 -0.235565
C -4.210614 0.752920 0.059157
C -4.269536 -0.588669 -0.198502
H -5.002579 1.479772 0.261234
H -5.123382 -1.270023 -0.254695
C -2.601701 -2.419313 -0.527325
H -2.057649 -2.584845 -1.476882
H -1.965215 -2.708096 0.332120
H -3.525778 -3.025830 -0.528571
C -2.402143 2.449355 0.328676
H -1.444627 2.385050 0.876688
H -2.236567 3.024051 -0.603665
H -3.157552 2.963685 0.952239
N -2.867959 1.101819 0.039242
N -2.964126 -1.018463 -0.377288
C 2.081059 -0.067886 -0.112981
C 4.176873 0.474841 0.595674
C 4.304796 -0.532841 -0.322540
H 4.931336 1.012025 1.177703
H 5.191495 -1.047425 -0.704088
C 2.720468 -1.861469 -1.741898
H 2.242639 -2.744119 -1.271597
H 2.028418 -1.449427 -2.500712
H 3.660278 -2.175074 -2.232218
C 2.252132 1.745058 1.598838
H 1.741638 2.533555 1.013722
H 1.528776 1.234422 2.263903
H 3.067269 2.193392 2.196375
N 2.822812 0.747566 0.702753
N 3.020374 -0.844261 -0.748430
C 0.159614 1.587912 -1.144937
N 0.334615 2.606294 -1.825181
H 0.394922 3.533687 -1.381069
N -0.160720 -0.853646 1.811475
O 0.788357 -0.741643 2.609107
O -1.212454 -1.414563 2.168340
