56

Ir -1.349875 -0.329071 -0.257507
H -1.252176 -0.899443 -1.867040
H -1.338063 0.036871 -2.068100
P 0.906596 -0.116407 -0.062752
C 1.460407 -2.862075 -0.268843
C 1.868238 -1.643942 0.312038
C 1.397474 1.062024 1.267877
C 0.750480 0.962755 2.517738
C 1.080292 1.847167 3.552345
C 2.052223 2.840803 3.348686
C 2.694476 2.945411 2.106610
C 2.371018 2.059672 1.066149
C 1.712379 0.555456 -1.581001
C 1.102553 1.655157 -2.225184
C 1.697596 2.213464 -3.365567
C 2.891342 1.677147 -3.878068
C 3.493914 0.579922 -3.243432
C 2.910322 0.019732 -2.094942
C 3.016913 -1.610906 1.129105
C 3.751409 -2.785783 1.356103
C 3.346746 -3.995409 0.768909
C 2.201119 -4.031098 -0.043605
H 0.545635 -2.885811 -0.881277
H -0.035221 0.204648 2.659093
H 0.562128 1.771933 4.520539
H 2.297765 3.545822 4.157531
H 3.446594 3.731009 1.937259
H 2.869549 2.155093 0.090094
H 0.161270 2.065011 -1.822166
H 1.220812 3.073871 -3.859792
H 3.351983 2.114914 -4.777208
H 4.426626 0.152791 -3.643029
H 3.389219 -0.838697 -1.600636
H 3.335116 -0.664425 1.592313
H 4.644585 -2.754458 1.998985
H 3.922569 -4.915990 0.951087
H 1.873896 -4.979380 -0.496731
N -3.618634 -0.346265 -0.358555
C -4.124861 0.158762 0.941255
C -4.069196 0.567226 -1.437329
C -4.134162 -1.711402 -0.609160
H -3.605485 1.558056 -1.273554
H -5.179696 0.648755 -1.433880
H -3.737201 0.173052 -2.415489
H -3.793478 -2.392986 0.191385
H -3.738861 -2.082677 -1.572640
H -5.248004 -1.705759 -0.645892
H -3.686591 1.156828 1.126024
H -3.810199 -0.526167 1.749310
H -5.236930 0.226236 0.924365
C -1.376862 -1.679730 1.013499
N -1.432412 -2.680577 1.735588
H -1.465779 -2.605978 2.760441
N -1.563068 1.836777 -0.124590
C -1.182016 2.799536 0.512930
O -0.843829 3.788573 1.103066
