29

Ir 0.134899 -0.144582 -0.215072
H 0.117754 -0.188008 -1.903010
H 0.153144 -1.168548 -1.737267
N -1.901841 -0.239461 -0.108083
C -2.453436 -1.380704 0.393500
C -3.843613 -1.505738 0.482283
N -4.703138 -0.545304 0.095941
C -4.138823 0.572595 -0.386466
C -2.753701 0.744663 -0.495991
H -1.707166 -2.137462 0.709689
H -4.274867 -2.436476 0.889784
H -4.812546 1.384955 -0.711217
H -2.297517 1.661199 -0.894726
N 2.195110 -0.298710 -0.133232
C 4.420086 -0.031846 -0.228585
C 3.205988 0.551012 -0.537224
N 4.111065 -1.241737 0.366952
C 2.760963 -1.379560 0.414964
H 4.779745 -1.926701 0.719084
H 5.449568 0.305342 -0.379683
H 2.987611 1.511648 -1.012925
H 2.149733 -2.202743 0.821500
C 0.174410 1.581597 0.493751
N 0.206154 2.704441 0.979866
C 0.201562 4.048660 0.477706
H 1.112815 4.587296 0.814680
H -0.665874 4.608675 0.887492
H 0.157270 4.097071 -0.634724
F 0.185672 -2.091349 0.766462
