65

Ir -0.943281 -0.079345 0.252606
H -0.931101 0.076388 2.050731
H -0.951298 0.939438 1.921196
P -3.291926 -0.154507 0.165863
C -3.913859 -0.651165 -1.508908
C -4.206232 1.425023 0.509630
C -4.009076 2.006031 1.911285
C -4.110048 -1.355161 1.324028
C -3.587467 -2.790736 1.261841
C -3.408344 0.254093 -2.635356
H -3.557161 -1.692264 -1.656465
H -5.024716 -0.686144 -1.467913
H -3.852156 2.153733 -0.247687
H -5.278086 1.213294 0.298621
H -3.956630 -0.934366 2.340343
H -5.202743 -1.305755 1.119988
H -2.952173 2.301425 2.053837
H -4.627347 2.918427 2.032944
H -4.304283 1.298630 2.713025
H -3.721305 -3.244110 0.259472
H -2.504343 -2.825505 1.489968
H -4.122688 -3.428913 1.994008
H -3.801388 1.286793 -2.546384
H -2.302082 0.328810 -2.618788
H -3.722842 -0.138554 -3.623516
P 1.412197 -0.027165 0.094288
C 1.745499 2.539052 1.184815
C 2.196002 1.637451 0.198248
C 1.986371 -0.695367 -1.524019
C 1.360437 -0.183155 -2.682800
C 1.728674 -0.674361 -3.943189
C 2.706143 -1.679931 -4.056373
C 3.323176 -2.189370 -2.903521
C 2.968316 -1.697182 -1.635588
C 2.318206 -1.024813 1.355269
C 1.768723 -2.260996 1.759241
C 2.449675 -3.061893 2.687915
C 3.673113 -2.633408 3.229910
C 4.218815 -1.401406 2.835564
C 3.547762 -0.598867 1.899002
C 3.250031 2.014970 -0.658695
C 3.845338 3.279206 -0.526765
C 3.395748 4.172026 0.458806
C 2.345360 3.799398 1.313295
H 0.905546 2.264595 1.839604
H 0.589054 0.600569 -2.576814
H 1.244442 -0.270333 -4.845836
H 2.986522 -2.067962 -5.047993
H 4.086608 -2.978234 -2.987199
H 3.451012 -2.101676 -0.733110
H 0.804226 -2.587475 1.340970
H 2.016187 -4.026067 2.995166
H 4.200965 -3.260255 3.965194
H 5.175092 -1.058745 3.260065
H 3.980308 0.365498 1.592348
H 3.601406 1.320906 -1.436774
H 4.663249 3.568800 -1.204307
H 3.859453 5.165757 0.555820
H 1.977852 4.500151 2.078129
C -0.892044 -1.763861 -0.530631
N -0.810535 -2.861239 -1.090699
H -0.696721 -2.923545 -2.112968
N -1.006249 2.007473 -0.463867
O -1.422206 2.943280 0.241839
O -0.663879 2.212250 -1.642421
