32

Ir -0.017373 -0.279344 -0.234122
H 0.003774 -0.744345 -1.870275
H 0.076402 0.230219 -1.975991
As 2.425471 -0.201348 -0.066241
C 3.084284 0.443788 1.653955
C 3.300644 1.003710 -1.329108
C 3.354119 -1.904108 -0.310604
H 2.817340 1.514188 1.747301
H 4.184453 0.326396 1.703435
H 2.598916 -0.133675 2.462341
H 3.019615 2.041528 -1.064171
H 2.953979 0.772914 -2.353693
H 4.399596 0.885160 -1.260882
H 2.970530 -2.625221 0.436258
H 4.446641 -1.773466 -0.186227
H 3.131420 -2.289622 -1.323620
P -2.309372 -0.050011 -0.112460
C -5.386610 0.419471 0.105154
C -4.527936 1.532574 0.189838
C -3.132894 1.457580 0.108698
C -3.565306 -1.240005 -0.186338
C -4.920197 -0.894894 -0.071996
H -6.471711 0.585531 0.182914
H -4.980532 2.528531 0.332183
H -2.492492 2.349776 0.189732
H -3.270262 -2.292001 -0.323625
H -5.663415 -1.708205 -0.125181
C -0.031495 -1.838951 0.790896
O -0.003395 -2.856174 1.375120
N 0.071538 1.852122 0.193704
C 0.880101 2.728130 0.399747
O 1.676458 3.609653 0.608920
