37

Ir 0.070539 0.261514 0.176866
H 0.069142 0.511024 1.909972
H 0.110210 -0.394896 1.957857
P 2.415870 0.412432 0.060833
C 3.041503 -0.186118 -1.561631
C 3.370012 -0.576303 1.288142
C 3.149435 2.097566 0.202936
H 2.666338 -1.217118 -1.710300
H 4.148938 -0.171758 -1.610923
H 2.616896 0.457856 -2.356212
H 3.128314 -1.651505 1.168114
H 3.081518 -0.261680 2.310188
H 4.460532 -0.429122 1.150789
H 2.677132 2.747574 -0.559505
H 4.248090 2.082268 0.053247
H 2.915934 2.510466 1.203681
C -1.967586 -0.036183 0.064786
C -4.203987 -0.125456 0.483058
C -3.979165 -0.746634 -0.717620
H -5.129060 0.040604 1.042960
H -4.672509 -1.224298 -1.416229
C -1.945419 -1.194271 -2.146207
H -1.570089 -0.351347 -2.759273
H -1.084243 -1.814631 -1.824058
H -2.667831 -1.792855 -2.730787
C -2.750390 1.011148 2.193721
H -2.400241 0.315055 2.983245
H -1.976197 1.787061 2.042877
H -3.696769 1.482852 2.517601
N -2.966376 0.309966 0.939676
N -2.615319 -0.679295 -0.955629
C -0.064884 1.723829 -0.943665
N -0.120619 2.609975 -1.804117
H -0.244927 3.595937 -1.538254
N 0.347466 -1.905724 -0.147116
C 1.094651 -2.812774 0.148510
O 1.833525 -3.727222 0.416494
