29

Ir 0.310738 -0.101813 -0.202448
H 0.339279 -0.188557 -1.891810
H 0.371489 0.827253 -1.711515
N 2.448700 -0.160192 -0.266476
C 4.551624 -0.791841 -0.734809
C 3.219850 -1.053724 -0.986882
N 4.557942 0.269471 0.151804
C 3.276858 0.628749 0.420277
H 5.383729 0.718287 0.549138
H 5.469027 -1.260455 -1.102608
H 2.763738 -1.814507 -1.627405
H 2.912248 1.447713 1.064953
P -1.939701 -0.126300 -0.124180
C -5.061662 -0.214635 -0.126016
C -4.357832 -1.336823 0.347550
C -2.960399 -1.427224 0.393088
C -3.029508 1.113208 -0.648023
C -4.419109 0.945714 -0.594916
H -6.161749 -0.243894 -0.124257
H -4.939254 -2.202946 0.706136
H -2.472396 -2.333967 0.781532
H -2.573869 2.056721 -0.981106
H -5.047011 1.784913 -0.939077
C 0.362745 -1.695409 0.803990
N 0.441514 -2.663961 1.555359
H 0.483598 -3.632076 1.211970
N 0.316048 2.017176 0.618862
O -0.662915 2.740447 0.412076
O 1.262292 2.425808 1.319529
