39

Ir 0.051859 -0.360785 -0.141080
H 0.121478 -1.148039 -1.658559
H 0.011920 -0.258182 -1.981579
As 2.474458 0.070869 -0.125310
C 2.946579 1.283354 1.331473
C 3.137043 1.030009 -1.694294
C 3.761148 -1.391395 0.100834
H 2.286249 2.165307 1.226787
H 4.012064 1.581515 1.287473
H 2.727388 0.778498 2.291591
H 2.467815 1.902267 -1.824102
H 3.055210 0.374394 -2.582258
H 4.186137 1.357226 -1.558377
H 3.499763 -1.939106 1.026812
H 4.797624 -1.007421 0.170876
H 3.674653 -2.084402 -0.757868
C -1.987928 -0.364521 -0.021647
C -4.250186 -0.499631 -0.640881
C -4.136815 0.283111 0.676598
H -4.544385 0.152961 -1.495411
H -4.592555 -0.256348 1.539193
C -2.168941 1.145249 1.979836
H -2.616148 0.775782 2.928644
H -1.072685 1.017242 2.016502
H -2.401928 2.223383 1.855742
C -2.574505 -1.831016 -1.966303
H -2.477990 -1.246195 -2.909981
H -1.623092 -2.362512 -1.780569
H -3.382027 -2.579689 -2.101119
N -2.883714 -0.996112 -0.830756
N -2.688028 0.389103 0.859613
H -4.599808 1.290183 0.625236
H -4.976247 -1.337992 -0.592067
C 0.188423 -1.437295 1.366291
N 0.286867 -2.065568 2.424417
H 0.355053 -3.091929 2.429542
N 0.012717 1.827198 -0.393583
C -0.787561 2.736052 -0.346767
O -1.552149 3.666125 -0.285845
