34

Ir -0.000002 0.098118 0.313128
H -0.000083 0.034554 2.015407
H -0.000146 -0.916985 1.869775
As 2.379879 -0.133310 -0.061994
C 2.677059 -0.734734 -1.894534
C 3.237032 -1.562739 0.966856
C 3.601331 1.382075 0.168527
H 1.920054 -1.534380 -2.029375
H 3.707756 -1.110415 -2.045073
H 2.463646 0.101354 -2.586727
H 2.648248 -2.479473 0.772876
H 3.187407 -1.319082 2.045149
H 4.289352 -1.712565 0.655408
H 3.192712 2.243369 -0.393572
H 4.618548 1.135968 -0.193544
H 3.636908 1.651629 1.241414
As -2.379959 -0.133608 -0.062156
C -3.600462 1.383257 0.163387
C -3.239258 -1.559173 0.970398
C -2.676314 -0.740325 -1.893108
H -3.636547 1.655731 1.235518
H -4.617600 1.136867 -0.198704
H -3.190844 2.242744 -0.400734
H -3.188612 -1.313114 2.048100
H -2.652715 -2.477792 0.778489
H -4.292058 -1.707530 0.659851
H -2.464267 0.094269 -2.587525
H -3.706409 -1.118046 -2.042623
H -1.917921 -1.539072 -2.025806
C -0.000441 1.900636 -0.138625
N -0.000701 3.122065 -0.329047
H -0.000462 3.516028 -1.277852
O 0.002041 -1.880017 -0.667360
H 0.000727 -2.559181 0.030421
