29

Ir 0.137821 -0.348586 0.163148
H 0.060994 -0.099105 2.086111
H 0.068221 0.722069 2.032905
N -1.924513 -0.256977 0.138368
C -4.095453 -0.780328 0.419226
C -2.800823 -1.210187 0.630717
N -3.980312 0.444022 -0.211353
C -2.662602 0.734106 -0.373604
H -4.749391 1.043614 -0.510326
H -5.062036 -1.232857 0.658537
H -2.433223 -2.129055 1.095845
H -2.242161 1.648224 -0.814093
N 2.320630 -0.383448 0.142648
C 2.881490 0.589100 1.121852
C 2.857679 -1.729538 0.473992
C 2.770344 -0.001501 -1.226894
H 2.497453 -2.030900 1.474495
H 3.971161 -1.708322 0.467139
H 2.500486 -2.465444 -0.267638
H 2.366883 1.001016 -1.463565
H 2.371709 -0.730330 -1.955347
H 3.883473 0.008037 -1.272985
H 2.580526 0.292089 2.143332
H 2.477748 1.595079 0.901335
H 3.992315 0.594337 1.055416
C 0.066378 -1.948280 -0.686840
N 0.014772 -2.928492 -1.443947
H -0.054135 -3.879594 -1.058696
Br 0.229761 2.347609 -0.276158
