52

Ir -1.164461 0.010818 0.218844
H -1.209620 -0.057621 2.030858
H -1.241473 0.828229 1.949188
N -3.331667 0.027378 0.213625
C -4.020798 -1.086684 0.561968
C -5.421815 -1.083225 0.599339
N -6.154454 -0.000144 0.299040
C -5.459521 1.093805 -0.049519
C -4.058243 1.127803 -0.100018
H -3.426751 -1.978810 0.806340
H -5.961603 -2.002051 0.887167
H -6.032160 2.001373 -0.307158
H -3.490669 2.025466 -0.393608
P 1.128455 -0.000245 0.070388
C 1.467406 -2.525027 1.283869
C 1.983425 -1.214708 1.173398
C 1.992631 1.587783 0.435230
C 1.517325 2.415062 1.471947
C 2.199004 3.594844 1.800226
C 3.355147 3.962799 1.092708
C 3.828926 3.145332 0.054854
C 3.152651 1.960088 -0.274548
C 1.704410 -0.424554 -1.629292
C 1.140843 0.297095 -2.705108
C 1.545730 0.017942 -4.017649
C 2.499670 -0.984942 -4.268034
C 3.056151 -1.703929 -3.199385
C 2.664539 -1.423325 -1.878958
C 3.145558 -0.866344 1.893002
C 3.781847 -1.815230 2.709689
C 3.270426 -3.118033 2.809973
C 2.114735 -3.470229 2.092770
H 0.557370 -2.805022 0.733352
H 0.597560 2.143686 2.010375
H 1.814396 4.238981 2.605414
H 3.883005 4.895264 1.345198
H 4.729162 3.432794 -0.509670
H 3.526554 1.325980 -1.092389
H 0.384766 1.073850 -2.505130
H 1.108244 0.586141 -4.852866
H 2.808739 -1.206249 -5.301339
H 3.802152 -2.490747 -3.390223
H 3.104472 -1.987701 -1.043093
H 3.555473 0.151642 1.819422
H 4.684392 -1.529734 3.271679
H 3.770728 -3.860124 3.451140
H 1.706444 -4.489811 2.167667
C -1.182061 -1.639353 -0.677886
N -1.199528 -2.694365 -1.313691
H -1.143273 -2.712632 -2.341592
C -1.168655 1.971716 -0.409616
N -1.235382 3.049375 -0.893440
