35

Ir -0.092863 -0.235700 -0.243203
H -0.124302 -0.485981 -1.943857
H -0.057786 0.455030 -1.970447
As 2.339035 -0.280395 -0.105159
C 3.041865 0.254013 1.640357
C 3.281328 0.958237 -1.291188
C 3.213729 -1.999525 -0.434032
H 2.780539 1.318123 1.801254
H 4.142253 0.130266 1.668611
H 2.566354 -0.366453 2.422562
H 3.021172 1.988633 -0.979122
H 2.948089 0.791545 -2.332778
H 4.376001 0.809265 -1.212635
H 2.753664 -2.753914 0.232387
H 4.303495 -1.933064 -0.248722
H 3.024393 -2.297129 -1.482932
As -2.490002 0.099351 -0.037813
C -3.698245 -1.423580 -0.257734
C -3.197245 1.457142 -1.250321
C -2.961012 0.814987 1.716257
H -3.623632 -1.789212 -1.299550
H -4.744133 -1.139343 -0.030564
H -3.364095 -2.230761 0.421845
H -3.098167 1.098333 -2.292417
H -2.564345 2.354898 -1.112860
H -4.256762 1.686421 -1.024511
H -2.739455 0.048727 2.482868
H -4.028340 1.106823 1.761598
H -2.304042 1.690743 1.879065
C -0.178604 -1.829835 0.700794
N -0.231439 -2.957657 1.202353
H -0.228772 -3.091142 2.221390
N -0.036721 1.915668 0.228767
C 0.818779 2.723490 0.516918
O 1.662974 3.536988 0.802425
