37

Ir 0.042504 -0.173594 0.170399
H 0.106459 -0.996496 1.636764
H 0.050344 -0.087177 2.001996
As -2.400307 0.033191 0.083069
C -2.852801 1.273224 -1.353934
C -3.136366 0.941118 1.646869
C -3.612964 -1.481418 -0.221096
H -2.187799 2.138104 -1.166672
H -3.919797 1.567844 -1.328421
H -2.599179 0.807232 -2.324718
H -2.484943 1.828894 1.763426
H -3.040067 0.287873 2.534889
H -4.193707 1.233172 1.495639
H -3.290439 -2.001815 -1.143741
H -4.661473 -1.141213 -0.329985
H -3.535643 -2.185867 0.629399
C 2.066525 0.098175 0.102710
C 4.373438 -0.203691 0.406749
C 4.133284 1.063613 -0.423151
H 4.722631 0.028178 1.441294
H 4.433395 0.933913 -1.490086
C 2.026009 2.340709 -0.990502
H 2.057326 2.219854 -2.097344
H 0.974743 2.397551 -0.622978
H 2.554115 3.279481 -0.724190
C 2.828760 -2.057498 1.120002
H 2.967857 -1.966291 2.222711
H 1.797002 -2.401300 0.920392
H 3.549823 -2.812063 0.740997
N 3.035182 -0.798677 0.445696
N 2.680178 1.226310 -0.330283
H 4.663006 1.955385 -0.029868
H 5.109726 -0.897375 -0.049557
C 0.112999 -1.278089 -1.316179
N 0.131456 -1.978776 -2.332935
H 0.244021 -2.999611 -2.277012
F -0.437898 1.973809 0.447651
