42

Ir -0.000010 0.017383 -0.356277
H -0.000020 -0.252316 -1.997028
H -0.000006 -1.215824 -1.666050
C -2.074233 -0.120645 -0.225562
C -4.285879 0.194988 0.269631
C -4.162798 -1.051425 -0.277981
H -5.162671 0.728366 0.648027
H -4.910649 -1.826452 -0.469248
C -2.281153 -2.474663 -1.101417
H -1.931494 -2.337319 -2.143782
H -1.429457 -2.787450 -0.464197
H -3.078689 -3.240138 -1.079526
C -2.742682 2.049119 0.882397
H -1.785208 2.006462 1.433949
H -2.665315 2.829165 0.100415
H -3.563414 2.304753 1.578627
N -3.011425 0.743928 0.301101
N -2.819697 -1.229249 -0.569287
C 2.074218 -0.120600 -0.225590
C 4.285860 0.195073 0.269591
C 4.162803 -1.051333 -0.278042
H 5.162643 0.728464 0.647990
H 4.910670 -1.826340 -0.469328
C 2.281182 -2.474600 -1.101484
H 1.429501 -2.787416 -0.464260
H 1.931508 -2.337248 -2.143842
H 3.078735 -3.240057 -1.079614
C 2.742626 2.049158 0.882404
H 2.665246 2.829219 0.100438
H 1.785153 2.006471 1.433954
H 3.563353 2.304793 1.578640
N 3.011395 0.743984 0.301081
N 2.819703 -1.229182 -0.569340
C -0.000031 1.888018 -0.340037
N -0.000045 3.087534 -0.611911
C -0.000050 4.291334 0.165592
H -0.889667 4.912853 -0.076908
H 0.889558 4.912864 -0.076915
H -0.000045 4.105692 1.265720
N 0.000018 -1.755520 0.940243
C 0.000108 -2.064483 2.113697
O 0.000194 -2.443395 3.254237
