33

Ir -0.386808 0.069639 0.201508
H -0.466350 0.123086 1.974650
H -0.436636 -0.797440 1.844663
As 1.994321 -0.016060 0.071777
C 2.662762 -0.314939 -1.735655
C 2.787193 -1.481895 1.086775
C 2.973792 1.567259 0.670061
H 2.188704 -1.243837 -2.106077
H 3.766477 -0.405788 -1.738879
H 2.344601 0.532564 -2.371555
H 2.337613 -2.419392 0.707584
H 2.529703 -1.360174 2.155923
H 3.886965 -1.496747 0.958194
H 2.627992 2.435082 0.076449
H 4.064612 1.427562 0.539122
H 2.739067 1.749437 1.735858
N -2.634055 -0.099022 0.082649
C -3.020072 -0.164863 -1.352427
C -3.094981 -1.339356 0.759549
C -3.285795 1.071085 0.719330
H -2.596362 -2.212432 0.301379
H -4.199702 -1.438103 0.662919
H -2.826808 -1.297045 1.831141
H -2.974525 1.998665 0.206013
H -2.974947 1.137475 1.777984
H -4.394231 0.974100 0.663821
H -2.520847 -1.031720 -1.821625
H -2.688265 0.754939 -1.866486
H -4.125713 -0.265865 -1.446258
C -0.390200 1.800906 -0.521329
O -0.367838 2.853388 -1.050299
C -0.263737 -1.814844 -0.628786
N -0.163205 -2.867238 -1.161552
