32

Ir -0.175456 0.030392 -0.157837
H -0.104584 0.014792 -1.841776
H -0.054309 -0.978127 -1.664166
P -2.428362 -0.207180 -0.059230
C -3.076479 -0.236180 1.662912
C -2.964386 -1.822402 -0.741676
C -3.452267 1.069210 -0.897336
H -2.540291 -1.045704 2.194676
H -4.168885 -0.425072 1.690020
H -2.844563 0.728630 2.153199
H -2.312247 -2.564873 -0.236028
H -2.753766 -1.846720 -1.828328
H -4.038504 -2.022313 -0.554766
H -3.189637 2.060445 -0.478264
H -4.536734 0.876401 -0.769026
H -3.198337 1.076099 -1.975096
N 1.983602 -0.030081 -0.053956
C 4.770702 -0.286535 0.017238
C 3.940435 -1.388032 0.276033
C 2.551376 -1.227501 0.233326
C 2.775583 1.039714 -0.296965
C 4.171868 0.949405 -0.269866
H 5.866677 -0.388317 0.038880
H 4.360600 -2.377424 0.509992
H 1.801779 -2.022774 0.443664
H 2.254318 1.984547 -0.512539
H 4.775127 1.845723 -0.474892
C -0.258587 1.789362 0.447382
N -0.303349 3.003570 0.692679
H -0.333630 3.331996 1.667788
O -0.174300 -1.977126 0.740108
H -0.164307 -1.799457 1.700362
