51

Ir 0.006903 0.052898 0.195327
H 0.039945 -0.107015 1.906159
H 0.035270 -1.042385 1.695941
P 2.342787 -0.129401 -0.023304
C 2.968075 0.477339 -1.662779
C 2.874050 -1.901740 0.029469
C 2.932098 -2.518248 1.427834
C 3.419471 0.758253 1.200784
C 3.137452 2.257534 1.319573
C 2.224455 -0.107767 -2.864986
H 2.849469 1.581434 -1.640907
H 4.058859 0.264999 -1.711289
H 2.060513 -2.390052 -0.557197
H 3.842684 -1.998287 -0.506382
H 3.233749 0.255007 2.172903
H 4.480056 0.557526 0.930994
H 1.966555 -2.388615 1.958555
H 3.122478 -3.608517 1.357171
H 3.734537 -2.083052 2.058524
H 3.320886 2.795818 0.367577
H 2.081889 2.439652 1.603060
H 3.787215 2.718442 2.090995
H 2.324050 -1.210747 -2.917637
H 1.143484 0.134965 -2.800057
H 2.616503 0.312755 -3.813255
P -2.330770 -0.110027 0.059502
C -3.063336 -1.467918 1.093461
C -2.912963 -0.488045 -1.657564
C -2.576329 0.596102 -2.682969
C -3.288216 1.398686 0.557803
C -3.017356 1.845863 1.996388
C -2.710994 -2.879163 0.605100
H -2.662034 -1.292854 2.113840
H -4.163304 -1.305886 1.146023
H -2.387828 -1.435930 -1.897774
H -4.003182 -0.703425 -1.621148
H -2.983328 2.195046 -0.153486
H -4.368200 1.197364 0.384448
H -1.493348 0.837476 -2.656969
H -2.833498 0.261218 -3.708387
H -3.130276 1.538264 -2.494466
H -3.348652 1.088138 2.735640
H -1.933178 2.019542 2.152734
H -3.554044 2.789163 2.223541
H -3.320051 -3.157071 -0.279365
H -1.645252 -2.935190 0.293682
H -2.916919 -3.628205 1.396359
C -0.000001 1.851449 -0.240781
O -0.022541 3.001837 -0.504983
O -0.046835 -1.925400 -0.794021
H -0.030273 -1.726847 -1.748964
