40

Ir 0.006895 0.139248 -0.324321
H -0.027078 0.389439 -2.002623
H 0.106322 -0.581001 -1.986113
P -2.287961 -0.191827 -0.217923
C -5.347629 -0.803318 0.080046
C -4.432046 -1.867606 0.195143
C -3.044973 -1.723716 0.083401
C -3.613037 0.924130 -0.314910
C -4.948338 0.522895 -0.160938
H -6.421933 -1.018629 0.184993
H -4.831966 -2.877599 0.388832
H -2.358181 -2.578111 0.193891
H -3.373878 1.982642 -0.503351
H -5.732029 1.296006 -0.234921
C 2.054053 0.169395 -0.148915
C 4.348052 0.060537 -0.652102
C 4.118117 -0.416379 0.788998
H 4.883468 -0.686988 -1.273480
H 4.770939 0.091103 1.528863
C 2.130416 -0.333762 2.316689
H 2.622677 0.313048 3.073822
H 1.050144 -0.108144 2.283391
H 2.272910 -1.398571 2.598719
C 2.758512 0.643935 -2.514102
H 2.753172 -0.235426 -3.195532
H 1.792194 1.171089 -2.605336
H 3.567448 1.331843 -2.839735
N 2.978663 0.263362 -1.138785
N 2.706860 -0.083278 1.011242
H 4.247042 -1.516316 0.899914
H 4.917504 1.017463 -0.707937
C -0.117755 1.741110 0.657568
N -0.181179 2.757849 1.322412
C -0.306280 4.172502 1.143904
H 0.545575 4.697095 1.625473
H -1.230169 4.540081 1.638199
H -0.339586 4.466393 0.070670
N 0.184938 -1.986964 0.246672
C 1.127126 -2.689558 0.541331
O 2.048952 -3.399734 0.864550
