33

Ir -0.084934 -0.151525 -0.252046
H -0.100564 0.024472 -1.974236
H -0.150742 0.944776 -1.730226
As 2.310538 -0.005686 -0.094086
C 2.983005 0.036060 1.734184
C 3.130670 1.534148 -0.967210
C 3.281899 -1.519554 -0.870694
H 2.504391 0.903827 2.223332
H 4.086042 0.132489 1.743859
H 2.671963 -0.900258 2.235064
H 2.661924 2.431897 -0.524533
H 2.914697 1.487718 -2.051647
H 4.224897 1.536302 -0.797786
H 2.946904 -2.443485 -0.362383
H 4.374437 -1.392215 -0.740914
H 3.035058 -1.593738 -1.946768
N -2.222445 -0.184657 -0.201849
C -5.026412 -0.056383 -0.013130
C -4.301654 0.963173 -0.641296
C -2.906581 0.872413 -0.707221
C -2.924914 -1.172242 0.408518
C -4.316761 -1.141828 0.523840
H -6.123382 -0.007484 0.059597
H -4.801155 1.839879 -1.077495
H -2.304092 1.662121 -1.172372
H -2.334444 -2.003986 0.817497
H -4.830225 -1.968185 1.035902
C 0.065542 -1.879634 0.418437
N 0.186127 -2.960919 1.009348
H 0.238795 -3.838698 0.472821
N -0.183319 1.852210 0.717737
O -1.266028 2.418315 0.912355
O 0.879316 2.366218 1.126824
