31

Ir 0.152628 0.142442 -0.220317
H 0.160431 0.035314 -1.914307
H 0.215790 -0.944501 -1.637577
P -2.106732 0.048712 -0.117319
C -5.227399 -0.054476 -0.130302
C -4.511404 -1.263401 -0.204827
C -3.114093 -1.356907 -0.207446
C -3.208436 1.383070 -0.046669
C -4.598013 1.200308 -0.049224
H -6.327185 -0.092849 -0.130168
H -5.084069 -2.204716 -0.257018
H -2.602492 -2.329781 -0.217923
H -2.781570 2.394984 0.019958
H -5.233733 2.099468 0.013400
N 2.294265 0.183123 -0.231000
C 5.101584 0.053196 -0.151410
C 4.352866 -0.968690 -0.746233
C 2.956483 -0.879090 -0.754602
C 3.019548 1.172944 0.346642
C 4.414765 1.141200 0.408497
H 6.200523 0.003881 -0.121484
H 4.834091 -1.847401 -1.198278
H 2.337016 -1.668735 -1.196158
H 2.449030 2.007487 0.776026
H 4.947917 1.968697 0.897800
C 0.055960 1.879150 0.491822
N 0.011804 2.970316 1.060076
H -0.046531 3.856144 0.539653
N 0.361173 -1.848389 0.817376
O 1.490125 -2.308454 1.035772
O -0.657932 -2.436029 1.200180
