41

Ir 0.328176 -0.384712 0.005488
H 0.509805 -1.428785 -1.292775
H 0.248105 -0.603240 -1.785550
C 2.306163 0.224130 -0.177597
C 4.530373 0.314449 -0.678732
C 4.206717 1.471209 -0.020817
H 5.481259 -0.032424 -1.093860
H 4.821643 2.332301 0.257282
C 2.123119 2.401574 1.040470
H 2.723474 3.328809 1.082109
H 1.149383 2.589213 0.546616
H 1.936010 2.034330 2.069783
C 3.272667 -1.743930 -1.382028
H 2.647125 -2.405071 -0.753520
H 2.808255 -1.670591 -2.386665
H 4.287722 -2.171284 -1.481233
N 3.364002 -0.434952 -0.756133
N 2.854212 1.396976 0.277431
C -1.706014 -0.780115 0.184865
C -3.943984 -0.371083 0.799098
C -3.917717 -1.229535 -0.473885
H -4.395401 -0.896306 1.672004
H -4.257287 -0.654467 -1.365069
C -2.056978 -2.383452 -1.707561
H -2.000568 -1.820311 -2.667459
H -1.059928 -2.803883 -1.483391
H -2.771156 -3.222526 -1.837046
C -2.145655 0.829036 2.063408
H -2.563598 0.514723 3.045449
H -1.043838 0.870016 2.127123
H -2.534940 1.838678 1.809098
N -2.520642 -0.117186 1.038515
N -2.492474 -1.555940 -0.609307
H -4.532628 -2.150874 -0.398407
H -4.474978 0.591697 0.649968
C 0.696013 -1.166042 1.655553
N 0.978886 -1.853052 2.639486
H 0.939801 -1.472015 3.592882
N -0.415374 1.628112 -0.596874
C -1.477662 2.145071 -0.824098
S -2.930648 2.821202 -1.097114
