52

Ir -1.011594 -0.630063 -0.145631
H -0.771307 -1.693539 -1.471801
H -0.961464 -0.883995 -1.961760
P 1.213564 -0.067366 -0.037648
C 2.084186 -2.658290 0.589037
C 2.318765 -1.282710 0.796883
C 1.512779 1.534833 0.818624
C 0.637257 1.943113 1.844689
C 0.839705 3.168683 2.494306
C 1.922838 3.986811 2.135294
C 2.801440 3.581148 1.117631
C 2.596023 2.362239 0.453151
C 1.970815 0.177473 -1.699970
C 1.311860 1.049897 -2.595020
C 1.854337 1.278961 -3.866995
C 3.044171 0.639464 -4.257352
C 3.695529 -0.230295 -3.369531
C 3.163686 -0.461985 -2.089647
C 3.398891 -0.875535 1.605797
C 4.237156 -1.836243 2.193567
C 4.006761 -3.203820 1.975787
C 2.929355 -3.612993 1.172353
H 1.222429 -2.972204 -0.020803
H -0.226315 1.313506 2.106099
H 0.129966 3.493176 3.269523
H 2.074652 4.953058 2.640453
H 3.645542 4.224820 0.825924
H 3.271240 2.061708 -0.362707
H 0.374086 1.540568 -2.284218
H 1.340547 1.961873 -4.560901
H 3.464080 0.819799 -5.259024
H 4.626578 -0.734386 -3.671287
H 3.679427 -1.142135 -1.395165
H 3.581177 0.194836 1.783808
H 5.073902 -1.511047 2.830637
H 4.664204 -3.954499 2.440776
H 2.738513 -4.684373 1.006909
N -3.124245 -0.941310 -0.256419
C -5.268919 -1.867471 -0.642113
O -5.322032 -0.508933 -0.108681
C -4.061457 -0.102120 0.049180
C -3.758062 -2.194367 -0.702663
H -3.402055 -2.446647 -1.722179
H -3.453412 -3.020226 -0.027722
H -5.763839 -1.856819 -1.633629
H -5.846004 -2.520436 0.041460
H -3.908705 0.925082 0.425088
C -0.936827 -1.431338 1.529201
O -0.905329 -1.990957 2.561067
N -1.435564 1.450164 -0.674139
C -1.979709 2.384242 -0.142427
S -2.753120 3.612260 0.575937
