34

Ir -0.152135 0.141045 -0.179929
H -0.169254 1.033240 -1.631102
H -0.199404 0.060551 -1.950525
C -2.208298 0.015363 -0.074238
C -4.433182 0.265105 -0.476926
C -4.295498 -0.623225 0.555295
H -5.326428 0.656323 -0.972450
H -5.046352 -1.164106 1.138438
C -2.374800 -1.630007 1.819631
H -1.974353 -2.555943 1.362340
H -1.533110 -1.110958 2.313359
H -3.165473 -1.863644 2.556313
C -2.860659 1.598698 -1.907415
H -2.106913 2.329799 -1.559350
H -2.459532 1.077276 -2.799432
H -3.792185 2.126810 -2.181326
N -3.150862 0.651668 -0.842414
N -2.936054 -0.757210 0.793262
P 2.166811 0.069121 -0.132661
C 5.293792 -0.082481 -0.015800
C 4.670792 1.148722 0.255528
C 3.282964 1.345740 0.233640
C 3.176547 -1.313896 -0.412371
C 4.572880 -1.249526 -0.332217
H 6.392358 -0.136725 0.024461
H 5.311273 2.013290 0.499438
H 2.858713 2.337017 0.458340
H 2.660227 -2.259285 -0.644639
H 5.141101 -2.175345 -0.524759
C -0.173474 1.323568 1.307077
N -0.188615 2.161379 2.203632
H -0.175541 1.926238 3.203650
C -0.107203 -1.931225 -0.313179
N -0.076765 -3.111954 -0.337686
