58

Ir 1.240278 -0.115141 -0.399908
H 1.162345 -0.502142 -2.043079
H 1.115150 -1.419664 -1.649555
P -1.074399 -0.075031 -0.080458
C -1.564659 2.047204 -1.841452
C -2.030725 1.379745 -0.689911
C -1.503008 -0.145294 1.720625
C -0.744682 0.635048 2.619588
C -1.052726 0.636884 3.987733
C -2.113741 -0.146038 4.473683
C -2.865795 -0.930567 3.585013
C -2.564547 -0.931816 2.212955
C -1.943800 -1.542849 -0.775213
C -1.337034 -2.799038 -0.542204
C -1.949375 -3.958997 -1.037922
C -3.147072 -3.876788 -1.770886
C -3.739536 -2.626639 -2.008504
C -3.142500 -1.456277 -1.509146
C -3.206338 1.830151 -0.053443
C -3.910365 2.929034 -0.570141
C -3.447091 3.585267 -1.722518
C -2.274381 3.142567 -2.356325
H -0.630403 1.708400 -2.316151
H 0.102898 1.221690 2.228696
H -0.453896 1.247526 4.681245
H -2.349566 -0.150765 5.549108
H -3.692707 -1.552590 3.961236
H -3.151761 -1.555185 1.521540
H -0.384711 -2.825915 0.031337
H -1.481383 -4.939187 -0.855725
H -3.618711 -4.791696 -2.162550
H -4.673404 -2.557815 -2.587843
H -3.609500 -0.477157 -1.696117
H -3.569963 1.323376 0.853668
H -4.825642 3.276509 -0.066329
H -3.999190 4.449165 -2.124106
H -1.901740 3.659532 -3.253990
P 3.527465 -0.469401 -0.156684
C 3.971322 -2.205455 -0.548121
C 4.028231 -0.298253 1.602729
C 4.710955 0.582975 -1.093105
H 3.248432 -2.813807 0.033817
H 5.015460 -2.446239 -0.263769
H 3.816292 -2.392183 -1.628341
H 3.333007 -0.957983 2.159002
H 3.876134 0.748874 1.927324
H 5.079819 -0.605942 1.773644
H 4.538575 0.436495 -2.177239
H 5.764907 0.340860 -0.847204
H 4.503052 1.644716 -0.855021
C 1.414343 1.748024 -0.259610
N 1.518265 2.966979 -0.306164
C 1.518252 4.041094 0.643177
H 0.618432 4.676643 0.497813
H 2.401895 4.695979 0.489882
H 1.524025 3.686237 1.699687
O 1.232806 -1.889556 0.930896
H 0.820059 -1.587647 1.763054
