31

Ir -0.221519 0.180225 -0.357131
H -0.242692 -0.000804 -2.069503
H -0.345747 -0.912256 -1.803030
N -2.334547 0.223822 -0.311927
C -4.562083 -0.573426 -0.359749
O -4.420970 0.669777 0.403214
C -3.121164 0.968220 0.394073
C -3.161934 -0.816361 -0.959296
H -3.116269 -0.680317 -2.060092
H -2.731261 -1.806221 -0.698956
H -5.362983 -0.420651 -1.108268
H -4.873265 -1.361927 0.355166
H -2.796293 1.831151 0.993462
P 2.009484 -0.016297 -0.218206
C 5.110630 -0.338760 0.013124
C 4.312522 -1.497335 -0.034086
C 2.916179 -1.490956 -0.134758
C 3.202779 1.238710 -0.144910
C 4.572302 0.959235 -0.036342
H 6.201947 -0.453462 0.096281
H 4.815395 -2.477775 0.019858
H 2.330681 -2.423971 -0.130249
H 2.850186 2.280903 -0.183900
H 5.268817 1.813471 0.009695
C -0.131840 1.875511 0.443910
N -0.115423 2.955646 1.007116
C 0.004000 4.346530 0.680617
H 0.031318 4.526096 -0.417185
H 0.930049 4.762078 1.130717
H -0.844730 4.916190 1.112727
Br -0.500893 -2.253375 0.807369
