52

Ir -1.224396 -0.312323 -0.193306
H -1.190634 -0.939673 -1.797675
H -1.243704 -0.012967 -2.016757
P 1.056487 -0.125548 -0.084382
C 1.539759 -2.884476 -0.311088
C 1.997055 -1.674799 0.250704
C 1.617149 1.035875 1.230532
C 1.060193 0.901875 2.520244
C 1.449177 1.773488 3.545230
C 2.387663 2.787696 3.292407
C 2.939114 2.926011 2.010710
C 2.558221 2.053068 0.979179
C 1.809640 0.532499 -1.634697
C 1.179062 1.624737 -2.271571
C 1.740074 2.170709 -3.435131
C 2.919290 1.630684 -3.976355
C 3.542263 0.541372 -3.347759
C 2.993116 -0.007362 -2.177129
C 3.178533 -1.666100 1.020322
C 3.895000 -2.856680 1.220332
C 3.440148 -4.058046 0.653374
C 2.262427 -4.069742 -0.112462
H 0.603008 -2.888490 -0.890474
H 0.303881 0.125250 2.710835
H 1.003110 1.669629 4.545994
H 2.678650 3.481867 4.095549
H 3.664594 3.727479 1.803868
H 2.985808 2.173472 -0.027166
H 0.250837 2.039154 -1.842363
H 1.247659 3.024983 -3.924667
H 3.352796 2.059381 -4.893188
H 4.463707 0.111322 -3.769669
H 3.487446 -0.860251 -1.688446
H 3.534783 -0.726242 1.469057
H 4.813085 -2.844552 1.827663
H 4.001808 -4.990990 0.815322
H 1.897594 -5.011246 -0.550844
N -3.361319 -0.260125 -0.265759
C -5.668952 -0.784299 -0.263322
O -5.410939 0.647527 -0.407870
C -4.085625 0.804739 -0.375867
C -4.260376 -1.424263 -0.209038
H -4.045013 -2.098147 -1.063342
H -4.068933 -1.996693 0.721167
H -6.278425 -1.106054 -1.130456
H -6.259776 -0.926031 0.663679
H -3.653266 1.817411 -0.436035
C -1.231804 -1.604621 1.136059
O -1.245066 -2.454446 1.950875
N -1.362305 1.881483 -0.105748
C -0.953340 2.794707 0.587424
O -0.581390 3.740861 1.224022
