27

Ir -0.013995 0.127803 -0.153306
H -0.020414 0.249333 -1.856962
H -0.002254 -0.742930 -1.733840
N -2.090953 0.171607 -0.198840
C -4.201049 0.915310 -0.408411
C -2.876741 1.300636 -0.367150
N -4.192697 -0.460222 -0.264434
C -2.908287 -0.884386 -0.139006
H -5.009626 -1.070465 -0.248129
H -5.122803 1.492214 -0.526525
H -2.430208 2.296670 -0.438773
H -2.526743 -1.906479 0.044349
N 2.062376 0.142950 -0.220062
C 4.195493 -0.463723 -0.585338
C 2.888861 -0.906395 -0.584436
N 4.143246 0.866150 -0.209610
C 2.844359 1.205293 0.000054
H 4.938231 1.495545 -0.102404
H 5.135047 -0.976637 -0.809055
H 2.484874 -1.902571 -0.776997
H 2.492365 2.196044 0.305247
C -0.011501 1.677211 0.879124
N 0.029141 2.756244 1.487327
H 0.028901 2.752640 2.519157
N 0.054467 -1.999395 0.623724
O 1.135336 -2.399929 1.078468
O -0.949784 -2.741222 0.688122
