45

Ir 0.115978 -0.089599 -0.256299
H 0.079943 -0.389893 -2.031704
H 0.134007 -1.237745 -1.800485
P -2.163350 0.086166 -0.086137
C -2.716572 0.519812 1.630876
C -3.186684 -1.408905 -0.491271
C -2.992538 -1.979778 -1.896309
C -2.969435 1.382761 -1.150934
C -2.431400 2.806530 -1.016273
C -2.240709 -0.472740 2.695245
H -2.296281 1.527546 1.832060
H -3.824551 0.616003 1.617783
H -2.909520 -2.176694 0.257957
H -4.242405 -1.109694 -0.307589
H -2.845268 1.022686 -2.194139
H -4.058080 1.339449 -0.926599
H -1.968170 -2.385986 -1.996383
H -3.700006 -2.816221 -2.068407
H -3.166878 -1.230152 -2.695672
H -2.531914 3.194581 0.017706
H -1.357861 2.846453 -1.286159
H -2.985201 3.495757 -1.686047
H -2.671923 -1.483159 2.545568
H -1.137574 -0.579937 2.674557
H -2.537547 -0.129072 3.706736
N 2.284552 -0.170954 -0.291735
C 5.087009 -0.134816 -0.241888
C 4.356685 -0.696505 0.813678
C 2.956838 -0.698004 0.758529
C 2.985120 0.378127 -1.312156
C 4.382821 0.408765 -1.327663
H 6.187467 -0.117682 -0.220747
H 4.858192 -1.137560 1.687233
H 2.318705 -1.163828 1.531184
H 2.385506 0.811104 -2.126478
H 4.904882 0.861934 -2.182671
C 0.254716 1.598263 0.518133
N 0.395896 2.593420 1.223552
C 0.541083 3.995368 0.936114
H 1.450415 4.394095 1.432630
H -0.321423 4.559665 1.351062
H 0.610190 4.214627 -0.153774
N 0.039939 -2.158157 0.584468
O -0.707724 -3.035938 0.123260
O 0.700338 -2.384441 1.619117
