43

Ir 0.244856 -0.174421 -0.254095
H 0.166954 -0.794293 -1.831571
H 0.279317 -1.652795 -1.344687
P -2.004634 -0.306537 0.074933
C -2.636425 0.774286 1.447256
C -2.520614 -2.010320 0.589192
C -2.541019 -3.044076 -0.537805
C -3.111013 0.125554 -1.351476
C -2.949252 1.552479 -1.879726
C -1.903032 0.583789 2.776047
H -2.515731 1.817875 1.087553
H -3.727867 0.586221 1.549834
H -1.723962 -2.276535 1.320395
H -3.503974 -1.939152 1.102486
H -2.855402 -0.609381 -2.143665
H -4.159036 -0.083991 -1.041547
H -1.561983 -3.078015 -1.057795
H -2.731721 -4.056284 -0.126628
H -3.327893 -2.840084 -1.293075
H -3.248675 2.310802 -1.127885
H -1.895520 1.757331 -2.154046
H -3.581182 1.710521 -2.777342
H -2.005355 -0.450622 3.161860
H -0.820909 0.793730 2.648503
H -2.300629 1.272703 3.549170
N 2.373080 -0.214055 -0.269315
C 4.504560 -1.019421 0.324410
O 4.543882 0.371205 -0.143541
C 3.264886 0.713871 -0.359203
C 3.074624 -1.484659 0.007372
H 2.510556 -1.991035 0.824112
H 3.005304 -2.122778 -0.899904
H 4.730741 -1.003694 1.412218
H 5.301031 -1.577853 -0.202548
H 3.054632 1.766342 -0.599924
C 0.194669 1.690824 -0.257638
N 0.175958 2.919992 -0.331608
C 0.174210 3.948597 0.675927
H -0.761799 4.544793 0.612684
H 1.011214 4.659122 0.506635
H 0.260752 3.544394 1.710991
O 0.457425 -1.740503 1.274562
H 0.453440 -1.231594 2.107641
