30

Ir 0.083555 -0.126454 -0.197776
H 0.043527 -0.449148 -1.898019
H 0.035252 -1.335141 -1.571910
N -1.972505 -0.112917 -0.181338
C -2.705939 1.009229 -0.415906
C -4.103865 0.966480 -0.438947
N -4.807469 -0.160660 -0.244959
C -4.073289 -1.259773 -0.008690
C -2.673303 -1.261503 0.032318
H -2.145455 1.935835 -0.595940
H -4.669485 1.894634 -0.632262
H -4.614705 -2.206016 0.163566
H -2.066866 -2.153816 0.267508
N 2.149176 -0.207822 -0.228384
C 4.440953 0.291994 -0.555036
O 4.225991 -1.000789 0.091299
C 2.907873 -1.162173 0.214822
C 3.018334 0.862099 -0.756090
H 2.761898 1.058309 -1.816190
H 2.828773 1.794814 -0.187163
H 4.987654 0.107166 -1.501226
H 5.079456 0.900590 0.115199
H 2.501534 -2.075377 0.686451
C 0.153775 1.569758 0.585411
N 0.201915 2.642474 1.168265
C 0.207545 4.037242 0.840016
H -0.670934 4.540680 1.296281
H 0.189635 4.223319 -0.258209
H 1.108891 4.527797 1.264484
Cl 0.138753 -2.380471 1.093135
