33

Ir -0.087768 -0.066376 -0.272886
H -0.125838 -0.044364 -1.959064
H -0.100335 -1.024390 -1.842340
N -2.181574 -0.227718 -0.097952
C -3.080013 0.717643 -0.463121
C -4.453177 0.497745 -0.291244
N -4.950274 -0.632971 0.232909
C -4.041240 -1.556921 0.593803
C -2.661526 -1.379250 0.439487
H -2.675707 1.646276 -0.891069
H -5.172608 1.277957 -0.596273
H -4.421019 -2.495986 1.032245
H -1.876200 -2.108668 0.725622
As 2.260423 -0.337660 0.025536
C 3.522133 1.101280 -0.379606
C 2.940059 -1.906049 -0.912661
C 2.587286 -0.782694 1.894139
H 3.475553 1.328484 -1.461673
H 4.553723 0.812990 -0.098489
H 3.212944 1.999720 0.188268
H 2.871744 -1.741256 -2.004526
H 2.249953 -2.720162 -0.617747
H 3.981999 -2.139469 -0.619488
H 2.373431 0.105822 2.517144
H 3.622466 -1.138896 2.059410
H 1.842409 -1.574820 2.105601
C -0.052976 1.683344 0.371607
N -0.018622 2.825034 0.809353
C -0.054453 4.154300 0.270509
H -0.142217 4.167762 -0.839691
H 0.865318 4.708849 0.554159
H -0.909661 4.719637 0.697816
F 0.039441 -2.050286 0.607995
