59

Ir 1.341586 -0.219533 -0.268547
H 1.322253 -0.480560 -2.046008
H 1.291451 -1.346758 -1.777411
P -0.911082 -0.081879 -0.057669
C -1.192171 2.226433 -1.625963
C -1.605084 1.594386 -0.432762
C -1.575255 -0.453619 1.623010
C -0.759112 -0.203355 2.743957
C -1.259533 -0.421088 4.035959
C -2.567487 -0.900617 4.216924
C -3.378573 -1.162447 3.100635
C -2.886229 -0.939393 1.805013
C -1.870051 -1.209249 -1.163838
C -1.486435 -2.567554 -1.220159
C -2.202828 -3.461873 -2.028471
C -3.296448 -3.014328 -2.789425
C -3.677916 -1.664906 -2.735810
C -2.970370 -0.762650 -1.923911
C -2.484972 2.268340 0.435607
C -2.946944 3.556292 0.112990
C -2.542995 4.175005 -1.079855
C -1.666257 3.504715 -1.951226
H -0.474914 1.713677 -2.285841
H 0.273321 0.144418 2.583849
H -0.616702 -0.226871 4.908272
H -2.954157 -1.079559 5.232306
H -4.400730 -1.548134 3.237304
H -3.522567 -1.151223 0.931868
H -0.626276 -2.913987 -0.622526
H -1.899991 -4.519789 -2.065685
H -3.852023 -3.719574 -3.426930
H -4.533295 -1.307054 -3.329607
H -3.277166 0.293334 -1.885084
H -2.804879 1.791246 1.373705
H -3.627720 4.077930 0.803375
H -2.907231 5.183403 -1.330362
H -1.340484 3.986404 -2.886198
N 3.617305 -0.398373 -0.267376
C 4.067309 -0.342876 1.146431
C 4.033947 -1.692187 -0.860127
C 4.232751 0.709064 -1.032398
H 3.537559 -2.514415 -0.312196
H 5.141105 -1.803308 -0.804175
H 3.720240 -1.729565 -1.920004
H 3.941380 1.675942 -0.584382
H 3.867437 0.685436 -2.075659
H 5.343939 0.616917 -1.026164
H 3.579721 -1.162426 1.706165
H 3.761005 0.621808 1.590413
H 5.176058 -0.446121 1.202952
C 1.465950 1.574441 0.298949
N 1.505750 2.656547 0.875930
C 1.454446 4.022314 0.425626
H 2.203264 4.637027 0.966806
H 0.453824 4.449137 0.652208
H 1.628474 4.124237 -0.669329
C 1.292236 -2.038606 0.712718
C 1.291591 -3.086631 1.379289
H 1.282404 -3.984251 1.982596
