34

Ir -0.143974 0.144997 0.168266
H -0.204767 0.151079 1.979228
H -0.225897 -0.728556 1.907607
P 2.149795 0.131651 0.117453
C 2.890684 -0.350498 -1.490908
C 2.922233 -0.974269 1.362662
C 2.913992 1.769900 0.470666
H 2.513521 -1.360053 -1.739147
H 3.997730 -0.355516 -1.430174
H 2.559682 0.369144 -2.264200
H 2.535871 -1.992738 1.170970
H 2.623607 -0.642856 2.376321
H 4.027033 -0.953844 1.273840
H 2.583678 2.505316 -0.288135
H 4.020215 1.696153 0.458086
H 2.576405 2.122536 1.464347
N -2.422832 0.154597 0.170277
C -2.929030 1.441228 0.705573
C -2.886824 -0.023008 -1.231102
C -2.956321 -0.953502 1.003227
H -2.513404 0.812126 -1.851350
H -4.000279 -0.041067 -1.267289
H -2.481209 -0.979679 -1.608319
H -2.648626 -0.805711 2.055147
H -2.551550 -1.907172 0.618602
H -4.068405 -0.968110 0.951669
H -2.578476 2.279434 0.076749
H -2.549600 1.593032 1.733005
H -4.043012 1.438356 0.720905
C -0.125306 1.801086 -0.646829
O -0.115717 2.819414 -1.242620
N -0.100185 -1.991698 -0.430360
O -1.129373 -2.567164 -0.831097
O 0.988978 -2.599414 -0.460699
