51

Ir -1.062953 -0.280845 0.162204
H -1.128298 -0.044591 2.082107
H -1.215615 0.773863 2.017767
N -3.214707 -0.414077 0.232598
C -3.876044 -1.578285 0.012362
C -5.270207 -1.649266 0.123211
N -6.031839 -0.594583 0.455979
C -5.367733 0.551589 0.667523
C -3.974046 0.662172 0.558778
H -3.269909 -2.456342 -0.252293
H -5.781517 -2.609605 -0.063401
H -5.960997 1.442404 0.937527
H -3.436530 1.615865 0.692970
P 1.222573 -0.123596 0.060384
C 1.589345 -2.560851 1.475399
C 2.189354 -1.365875 1.031610
C 1.930994 1.462820 0.681214
C 1.804787 1.743624 2.057838
C 2.308639 2.941273 2.581365
C 2.942323 3.868396 1.736620
C 3.072467 3.589316 0.367986
C 2.568950 2.390596 -0.162242
C 1.835409 -0.290728 -1.673563
C 1.166789 0.450045 -2.674831
C 1.581283 0.349966 -4.010831
C 2.644473 -0.499515 -4.362821
C 3.297594 -1.247791 -3.371450
C 2.898947 -1.143734 -2.028290
C 3.550452 -1.122577 1.325162
C 4.298928 -2.068420 2.040490
C 3.696893 -3.261642 2.474611
C 2.343757 -3.503848 2.192027
H 0.526314 -2.744067 1.261277
H 1.309229 1.021005 2.724721
H 2.203409 3.153815 3.656316
H 3.334442 4.811204 2.147877
H 3.566432 4.312167 -0.299238
H 2.668147 2.183016 -1.237425
H 0.322456 1.103429 -2.394628
H 1.061313 0.935822 -4.784405
H 2.960746 -0.582203 -5.414232
H 4.125016 -1.921894 -3.641781
H 3.413864 -1.737741 -1.259018
H 4.023899 -0.183698 0.998607
H 5.357998 -1.868904 2.265295
H 4.284374 -4.001051 3.040605
H 1.864802 -4.433581 2.535424
C -0.920568 -1.908905 -0.653166
N -0.837962 -3.010028 -1.203427
H -0.766598 -3.105619 -2.224728
Br -1.235411 2.317038 -0.426140
