46

Ir 0.277167 -0.162683 -0.273178
H 0.218108 -0.770060 -2.072109
H 0.157524 -1.574486 -1.840366
P -2.058307 -0.161871 0.015305
C -2.630175 0.989883 1.356951
C -2.829240 -1.778518 0.501192
C -2.622989 -2.917253 -0.499137
C -3.084095 0.359002 -1.447645
C -2.697104 1.706279 -2.059698
C -1.939371 0.756521 2.702293
H -2.414890 2.013023 0.982400
H -3.735654 0.898376 1.437393
H -2.360592 -2.047363 1.470351
H -3.908651 -1.582713 0.685257
H -2.962466 -0.452076 -2.196739
H -4.150300 0.343675 -1.130010
H -1.543949 -3.133956 -0.623208
H -3.105996 -3.843944 -0.128484
H -3.057594 -2.692557 -1.494828
H -2.819687 2.542103 -1.341322
H -1.636809 1.705690 -2.380915
H -3.329903 1.931087 -2.942347
H -2.176475 -0.241518 3.122469
H -0.837651 0.805809 2.583574
H -2.254670 1.517649 3.444958
P 2.611189 -0.227718 -0.130515
C 3.217564 -0.146543 1.604015
C 3.544420 1.109179 -0.988857
C 3.371321 -1.777475 -0.768528
H 2.891298 0.811744 2.052062
H 4.322028 -0.233178 1.657396
H 2.737989 -0.975391 2.161113
H 3.180765 2.090076 -0.625676
H 3.337562 1.051041 -2.075228
H 4.635721 1.023386 -0.811986
H 2.913921 -2.623851 -0.219228
H 4.471020 -1.779135 -0.626768
H 3.133536 -1.884257 -1.844908
C 0.282634 1.724607 -0.246180
N 0.292496 2.936724 -0.107201
C 0.322117 3.893929 0.958732
H 1.191138 4.575411 0.843400
H 0.381654 3.410504 1.959942
H -0.588503 4.529388 0.930401
C 0.393697 -1.889595 0.836075
N 0.522327 -2.825885 1.548768
