32

Ir 0.221013 -0.102283 -0.252584
H 0.229171 -0.217602 -1.943194
H 0.276953 -1.172603 -1.758622
As -2.122655 -0.321517 0.020483
C -2.465084 -1.147942 1.754678
C -2.999243 -1.545944 -1.229305
C -3.269185 1.263847 -0.011114
H -1.675004 -1.922222 1.835241
H -3.484746 -1.573947 1.819146
H -2.310383 -0.386374 2.542239
H -2.475586 -2.517904 -1.152029
H -2.883021 -1.155444 -2.258240
H -4.072920 -1.669382 -0.986328
H -2.860618 1.992239 0.715246
H -4.312699 1.004304 0.253403
H -3.234642 1.712166 -1.022392
N 2.332700 -0.231263 -0.120713
C 4.560617 0.028526 -0.117168
C 3.362041 0.610663 -0.486201
N 4.220533 -1.174729 0.476096
C 2.867994 -1.305890 0.462097
H 4.870511 -1.857416 0.865619
H 5.597472 0.360627 -0.224228
H 3.169958 1.568338 -0.979706
H 2.230122 -2.119447 0.852135
C 0.182427 1.646523 0.371863
N 0.148445 2.795546 0.804844
C 0.119214 4.086857 0.171993
H -0.810519 4.629711 0.448312
H 0.170240 4.027905 -0.939493
H 0.966371 4.710683 0.529117
F 0.286058 -2.052723 0.728236
