31

Ir -0.238187 -0.402886 -0.151020
H -0.454992 -1.126837 -1.663496
H -0.253791 -0.184361 -1.949096
N 1.814232 -0.740836 -0.188277
C 4.607540 -1.030206 -0.302086
C 3.774917 -1.724045 -1.193746
C 2.391382 -1.557403 -1.107072
C 2.616562 -0.083126 0.686850
C 4.009677 -0.198526 0.652379
H 5.701458 -1.136514 -0.353504
H 4.186407 -2.394058 -1.962019
H 1.703102 -2.082430 -1.783164
H 2.115517 0.567731 1.414940
H 4.604438 0.381875 1.371363
N -2.279627 0.031197 -0.129842
C -5.025509 0.629982 -0.199460
C -4.063283 1.637878 -0.355706
C -2.705499 1.308950 -0.314283
C -3.208426 -0.948004 0.027584
C -4.580986 -0.685042 -0.000917
H -6.100294 0.864199 -0.230015
H -4.351040 2.687914 -0.509388
H -1.897669 2.051633 -0.418469
H -2.814699 -1.961841 0.183211
H -5.287312 -1.517011 0.132291
C -0.420020 -1.561453 1.300857
N -0.588350 -2.458841 2.127893
H -0.515172 -2.287068 3.139025
N 0.226553 1.735097 -0.151998
C 1.098358 2.531299 0.087037
S 2.282908 3.579430 0.435236
