39

Ir -0.155978 0.069432 -0.137007
H -0.222317 -0.003813 -1.882888
H -0.240282 -0.906792 -1.735686
N -2.324176 0.030295 -0.109933
C -3.049841 1.151611 -0.336857
C -4.450216 1.104405 -0.371120
N -5.144420 -0.029549 -0.188038
C -4.411084 -1.130249 0.041122
C -3.009203 -1.121417 0.085592
H -2.489176 2.085995 -0.484633
H -5.023080 2.029342 -0.558167
H -4.953134 -2.078494 0.200510
H -2.391048 -2.016165 0.287115
P 2.135250 0.045792 -0.107570
C 2.947464 1.707236 -0.263770
C 2.923541 -0.923859 -1.483654
C 2.747798 -2.443027 -1.420530
C 2.855401 -0.669220 1.440194
C 2.430610 0.057695 2.717268
C 2.576553 2.470068 -1.536924
H 2.631028 2.283773 0.629756
H 4.044748 1.547126 -0.182280
H 2.480194 -0.512921 -2.415191
H 3.999807 -0.641735 -1.492385
H 2.476646 -1.712294 1.457419
H 3.960648 -0.694098 1.319751
H 1.686395 -2.728901 -1.276454
H 3.126422 -2.910697 -2.352063
H 3.313301 -2.881425 -0.574020
H 2.768436 1.114441 2.737155
H 1.326631 0.046210 2.815683
H 2.858828 -0.444535 3.608140
H 2.911831 1.941386 -2.452482
H 1.478408 2.605942 -1.603265
H 3.047913 3.473654 -1.541966
C -0.153074 1.701361 0.725966
N -0.185075 2.849144 1.181228
H -0.165022 3.019948 2.195704
Cl -0.089271 -2.354466 0.688049
