33

Ir -0.210094 -0.091277 0.192773
H -0.400012 0.298187 1.926692
H -0.362333 1.146928 1.640446
N -2.384296 0.002162 0.136671
C -4.566140 -0.505556 0.354251
C -3.278522 -0.958895 0.567849
N -4.424270 0.747779 -0.213171
C -3.097926 1.025219 -0.333219
H -5.181297 1.369142 -0.498481
H -5.542843 -0.957431 0.551706
H -2.932007 -1.905499 0.994694
H -2.629649 1.932139 -0.753352
C 1.785410 -0.060964 0.125672
C 3.964574 -0.155323 -0.755344
C 4.023941 0.382215 0.679997
H 4.402450 -1.177979 -0.846927
H 4.255966 1.473048 0.709342
C 2.319819 0.426506 2.528073
H 2.092790 1.504238 2.694322
H 1.435323 -0.168579 2.821592
H 3.170964 0.141466 3.179007
C 2.040726 -0.493067 -2.334395
H 2.331455 -1.521884 -2.645568
H 0.937607 -0.419281 -2.325299
H 2.453373 0.231149 -3.068989
N 2.527135 -0.191302 -1.010142
N 2.661368 0.138978 1.155709
H 4.769231 -0.141753 1.313405
H 4.483021 0.499566 -1.486171
C -0.220341 -1.865763 -0.320295
O -0.209525 -2.986383 -0.690721
S -0.117742 2.199756 -0.928832
H -0.035535 1.770281 -2.221844
