45

Ir -0.096692 -0.229520 -0.417846
H -0.090983 -0.619645 -2.084395
H 0.047154 0.334034 -2.156221
P 2.246072 -0.416455 -0.258995
C 2.857420 -0.787211 1.450998
C 3.207226 1.090757 -0.744397
C 2.843163 1.691476 -2.102305
C 3.005827 -1.746711 -1.308528
C 2.406021 -3.144036 -1.148417
C 2.286472 0.130527 2.534950
H 2.584933 -1.846216 1.646803
H 3.968034 -0.740261 1.412617
H 3.051765 1.845687 0.055944
H 4.276779 0.787436 -0.702870
H 2.890415 -1.392495 -2.355177
H 4.096316 -1.742071 -1.089173
H 1.788964 2.030609 -2.105961
H 3.480454 2.574769 -2.307286
H 2.982769 0.975470 -2.938458
H 2.513055 -3.528078 -0.113807
H 1.324730 -3.144133 -1.388080
H 2.912863 -3.862485 -1.824037
H 2.535055 1.198060 2.365078
H 1.180696 0.058868 2.564364
H 2.683120 -0.156287 3.529930
P -2.385776 0.092253 -0.297184
C -5.457428 0.627065 -0.040978
C -4.576207 1.724446 0.004194
C -3.184207 1.618924 -0.098090
C -3.671388 -1.070771 -0.319951
C -5.017877 -0.699750 -0.194669
H -6.537868 0.816032 0.049127
H -5.006987 2.732159 0.130422
H -2.536660 2.508188 -0.046891
H -3.395720 -2.130709 -0.436352
H -5.777409 -1.499474 -0.219113
C -0.254733 -1.804767 0.602453
N -0.353712 -2.869893 1.178760
C -0.395068 -3.405898 2.504999
H 0.418280 -4.149053 2.641715
H -1.352951 -3.941189 2.671414
H -0.290928 -2.617125 3.282346
N 0.127316 1.847180 0.076759
C 0.719368 2.748511 0.603502
S 1.548015 3.960478 1.292731
