34

Ir -0.289196 0.381769 0.127130
H -0.396384 0.584405 1.973714
H -0.367667 -0.255979 2.065545
C 1.703380 0.257389 0.057004
C 3.792780 -0.237807 -0.690915
C 3.922531 0.284759 0.568312
H 4.546853 -0.604146 -1.393580
H 4.809856 0.464539 1.182184
C 2.335664 1.184141 2.296824
H 1.537062 1.939466 2.169640
H 1.984111 0.414773 3.013708
H 3.245059 1.668023 2.698617
C 1.861649 -0.732830 -2.233838
H 1.162758 -1.563475 -2.002992
H 1.298520 0.077202 -2.735300
H 2.679227 -1.083289 -2.890261
N 2.439924 -0.239337 -0.989927
N 2.641020 0.593929 1.005019
N -2.565893 0.334079 0.098231
C -3.110014 -0.501872 1.197355
C -3.127008 1.700338 0.216471
C -2.968525 -0.260740 -1.201945
H -2.789951 2.157825 1.165029
H -4.241282 1.667912 0.197476
H -2.770241 2.329784 -0.618994
H -2.522882 -1.270706 -1.281826
H -2.581074 0.364944 -2.026863
H -4.079363 -0.323739 -1.273027
H -2.855004 -0.042775 2.170624
H -2.654879 -1.509443 1.142481
H -4.218129 -0.576493 1.112831
C -0.232460 1.819097 -0.986992
O -0.178816 2.721109 -1.748081
Br -0.307466 -2.328556 0.097134
