75

Ir 0.011454 -0.095712 0.341719
H -0.003181 0.174817 2.177494
H -0.019343 1.010416 2.047449
P -2.328624 -0.020406 0.130107
C -2.761365 -2.576181 1.187367
C -3.183560 -1.655424 0.205284
C -2.855775 0.689112 -1.487061
C -2.027409 0.488271 -2.610174
C -2.420353 0.969382 -3.866513
C -3.633316 1.664233 -4.009545
C -4.454473 1.876572 -2.890668
C -4.069159 1.391119 -1.630399
C -3.233091 0.988351 1.387111
C -2.790544 2.308942 1.625906
C -3.452305 3.105335 2.571351
C -4.548831 2.597176 3.288877
C -4.986937 1.284735 3.054766
C -4.334566 0.480009 2.105887
C -4.241096 -2.001068 -0.659489
C -4.871123 -3.250381 -0.536686
C -4.455836 -4.157725 0.450597
C -3.400250 -3.817420 1.313327
H -1.912944 -2.315490 1.839592
H -1.064150 -0.029724 -2.478565
H -1.765318 0.813441 -4.737708
H -3.935239 2.050643 -4.995363
H -5.400674 2.429488 -2.996039
H -4.710562 1.567131 -0.753042
H -1.926886 2.702387 1.060817
H -3.103607 4.134334 2.750027
H -5.062267 3.225649 4.033093
H -5.844726 0.879104 3.613309
H -4.685940 -0.547050 1.927050
H -4.572219 -1.293923 -1.434767
H -5.692708 -3.514864 -1.220231
H -4.951013 -5.136674 0.543693
H -3.062249 -4.529311 2.081870
P 2.346133 -0.038402 0.102292
C 2.744921 -2.346418 1.690435
C 3.363372 -1.255104 1.048710
C 3.168773 1.556995 0.522840
C 2.981894 2.063801 1.825480
C 3.607792 3.254285 2.215404
C 4.420624 3.954352 1.307154
C 4.606411 3.454638 0.009791
C 3.984403 2.258255 -0.384521
C 2.753944 -0.345505 -1.670856
C 2.117691 0.474186 -2.632687
C 2.329211 0.238619 -3.997956
C 3.154685 -0.820381 -4.417877
C 3.774154 -1.641594 -3.464068
C 3.578971 -1.405893 -2.091742
C 4.764281 -1.096944 1.139861
C 5.533949 -2.027606 1.852298
C 4.913388 -3.119220 2.483978
C 3.520978 -3.275071 2.402891
H 1.652326 -2.459876 1.628485
H 2.335570 1.525071 2.535439
H 3.453356 3.643810 3.233352
H 4.906432 4.893973 1.612132
H 5.238745 3.999988 -0.707694
H 4.131308 1.875147 -1.405083
H 1.449540 1.286379 -2.295436
H 1.836092 0.884417 -4.741330
H 3.311414 -1.006867 -5.491672
H 4.416396 -2.476026 -3.785949
H 4.064772 -2.056940 -1.349772
H 5.252371 -0.235972 0.656958
H 6.624959 -1.896347 1.919897
H 5.518820 -3.846797 3.046486
H 3.029605 -4.124901 2.901043
C 0.047219 -1.814448 -0.308504
N 0.100117 -2.981523 -0.693290
H 0.118427 -3.245262 -1.685034
Cl 0.038084 2.340615 -0.391722
