42

Ir -0.060641 -0.158105 -0.215875
H -0.116075 -1.129786 -1.624094
H -0.067465 -1.825805 -0.994098
C -2.141734 -0.062465 -0.184987
C -4.305175 0.627921 0.107726
C -4.338142 -0.703725 -0.199215
H -5.111593 1.333355 0.328016
H -5.179667 -1.396097 -0.294082
C -2.644585 -2.491771 -0.621465
H -2.217766 -2.607472 -1.637256
H -1.895024 -2.793556 0.139676
H -3.547292 -3.124190 -0.534427
C -2.531324 2.344180 0.457950
H -1.665056 2.284092 1.142208
H -2.225613 2.907429 -0.445010
H -3.364648 2.872551 0.957768
N -2.967782 0.999967 0.117253
N -3.023070 -1.107164 -0.371902
C 1.995811 -0.314388 -0.049125
C 4.150436 -0.125205 0.858396
C 4.246948 -0.789090 -0.519701
H 4.550243 0.917246 0.852380
H 4.486963 -1.876636 -0.446357
C 2.565814 -0.998410 -2.386435
H 2.435298 -2.101298 -2.483247
H 1.626806 -0.501276 -2.693320
H 3.380170 -0.682120 -3.070212
C 2.173021 0.426405 2.327244
H 2.121954 1.539137 2.302065
H 1.163860 0.000229 2.498903
H 2.833451 0.119798 3.163347
N 2.703816 -0.110028 1.090331
N 2.889625 -0.599874 -1.037900
H 5.001245 -0.319387 -1.184136
H 4.680401 -0.686517 1.654745
C 0.229165 1.654099 -0.504019
N 0.535112 2.796505 -0.840319
C 0.735460 4.013701 -0.104055
H 0.765553 3.857715 0.999691
H -0.076161 4.741929 -0.325950
H 1.685826 4.500597 -0.409887
Cl -0.374950 -1.717599 1.819386
