30

Ir 0.298957 0.043064 -0.149704
H 0.217755 0.245664 -1.900281
H 0.219154 -0.710367 -1.810801
N -1.777381 -0.003882 -0.088830
C -2.510997 1.109569 -0.355057
C -3.910028 1.065509 -0.368712
N -4.608959 -0.055566 -0.133984
C -3.874871 -1.147275 0.129123
C -2.473770 -1.144925 0.161991
H -1.951122 2.031105 -0.564679
H -4.477342 1.987147 -0.585133
H -4.413409 -2.088878 0.331700
H -1.881174 -2.041654 0.395623
N 2.487683 -0.004132 -0.220200
C 3.030530 -0.159441 1.162616
C 2.958980 -1.157983 -1.041685
C 3.026451 1.248776 -0.816564
H 2.564361 -2.095784 -0.612343
H 4.070536 -1.178900 -1.051435
H 2.586700 -1.049008 -2.076302
H 2.726375 2.115577 -0.201575
H 2.614684 1.380309 -1.833272
H 4.136605 1.197745 -0.866860
H 2.632373 -1.090877 1.602825
H 2.709064 0.695491 1.783409
H 4.141750 -0.196508 1.125716
C 0.338212 1.667198 0.804710
O 0.371418 2.636430 1.471318
C 0.399227 -1.883128 0.598079
N 0.500125 -2.964732 1.067738
