36

Ir 0.303186 -0.016996 -0.121410
H 0.242778 -0.548031 -1.755440
H 0.285554 -1.416475 -1.373076
C -1.696054 -0.034036 -0.038400
C -3.923544 0.484449 0.036387
C -3.822725 -0.876140 -0.040092
H -4.799260 1.136681 0.101598
H -4.593482 -1.652105 -0.058967
C -1.965491 -2.548039 -0.190268
H -1.794320 -2.810851 -1.255247
H -1.008337 -2.599692 0.386337
H -2.718548 -3.237571 0.236527
C -2.336259 2.406688 0.086212
H -1.724696 2.656414 0.972391
H -1.771813 2.714364 -0.814324
H -3.292647 2.959971 0.127430
N -2.628071 0.984537 0.037442
N -2.471431 -1.181653 -0.077374
N 2.573207 -0.257615 -0.075648
C 2.894952 -1.680799 -0.344422
C 3.263377 0.610315 -1.051312
C 3.007937 0.073387 1.303807
H 2.908760 0.373235 -2.071933
H 4.367120 0.459358 -1.001486
H 3.030389 1.668545 -0.834086
H 2.442947 -0.583380 1.991920
H 2.771478 1.130924 1.522861
H 4.103201 -0.099429 1.419338
H 2.623762 -1.928273 -1.387924
H 2.288472 -2.295023 0.350294
H 3.983497 -1.865789 -0.195288
C 0.556950 1.795501 0.111206
N 0.918761 2.947925 0.414843
H 1.074607 3.636096 -0.336391
O 0.445009 -1.726269 1.239048
H 0.053004 -1.420425 2.078121
