34

Ir -0.320617 -0.104770 -0.341701
H -0.384415 -0.427740 -2.030647
H -0.361201 -1.321438 -1.716323
P -2.635705 -0.215903 -0.070160
C -3.112250 -0.190890 1.701034
C -3.370970 -1.768012 -0.715976
C -3.619119 1.132595 -0.843794
H -2.533737 -1.002145 2.186947
H -4.201983 -0.345672 1.834155
H -2.807039 0.778169 2.140564
H -2.810070 -2.597473 -0.240337
H -3.220714 -1.814569 -1.812031
H -4.451745 -1.834101 -0.478679
H -3.249156 2.106281 -0.467762
H -4.699537 1.026950 -0.618137
H -3.463189 1.107680 -1.939836
P 1.985682 -0.118482 -0.200957
C 5.099767 -0.185342 0.120961
C 4.353271 -1.302012 0.543894
C 2.959630 -1.394972 0.455902
C 3.127669 1.114087 -0.634350
C 4.507502 0.961562 -0.437079
H 6.194354 -0.210207 0.233836
H 4.899030 -2.158242 0.975737
H 2.409867 -2.279763 0.815677
H 2.729541 2.040393 -1.077889
H 5.167407 1.792308 -0.739915
C -0.357528 1.723267 0.080738
N -0.387621 2.929720 0.242449
C -0.369163 3.880447 1.313895
H -1.254561 4.547216 1.251105
H 0.527980 4.529335 1.232495
H -0.360363 3.393627 2.314383
Cl -0.370127 -2.269409 1.017994
