31

Ir 0.000007 -0.203206 -0.121044
H 0.000013 -0.473309 -1.787907
H 0.000000 0.529158 -1.777234
N 2.082108 -0.188466 -0.087903
C 4.890476 -0.163130 -0.028973
C 4.195613 -1.169571 -0.715043
C 2.797847 -1.153592 -0.720077
C 2.749889 0.782869 0.587492
C 4.146374 0.824233 0.632971
H 5.990673 -0.151449 -0.007403
H 4.724300 -1.973657 -1.246703
H 2.206618 -1.926387 -1.230642
H 2.102366 1.531661 1.071259
H 4.636863 1.634416 1.191542
N -2.082092 -0.188495 -0.087905
C -4.890461 -0.163194 -0.028965
C -4.146367 0.824121 0.633061
C -2.749881 0.782776 0.587573
C -2.797823 -1.153574 -0.720159
C -4.195589 -1.169569 -0.715123
H -5.990657 -0.151526 -0.007390
H -4.636863 1.634251 1.191703
H -2.102368 1.531538 1.071397
H -2.206588 -1.926320 -1.230792
H -4.724269 -1.973614 -1.246851
C 0.000019 -1.783938 0.875163
N 0.000031 -2.919888 1.356688
H 0.000029 -3.061188 2.376054
N -0.000013 1.908242 0.493354
C -0.000074 3.026318 0.011684
O -0.000133 4.155126 -0.395489
