39

Ir -0.053383 0.022781 -0.222465
H -0.104652 -0.835314 -1.746304
H -0.008586 -1.555167 -1.139993
C -2.135887 -0.074278 -0.124202
C -4.348042 0.437053 0.143695
C -4.258051 -0.916604 -0.021450
H -5.215317 1.083496 0.305655
H -5.031219 -1.690182 -0.028931
C -2.411057 -2.573509 -0.318650
H -1.951371 -2.722211 -1.315527
H -1.652553 -2.771265 0.464181
H -3.258948 -3.273104 -0.202565
C -2.732543 2.337764 0.272927
H -1.922663 2.437338 1.019130
H -2.396055 2.804960 -0.672390
H -3.635406 2.862227 0.636186
N -3.052606 0.932625 0.083605
N -2.911622 -1.212673 -0.179122
C 2.025869 -0.038251 -0.059371
C 4.155856 0.048814 0.938032
C 4.279386 -0.596351 -0.452470
H 4.698611 1.018554 1.015226
H 4.554144 -1.674770 -0.398794
C 2.643035 -0.876573 -2.342088
H 2.506913 -1.980346 -2.411587
H 1.721203 -0.383458 -2.700636
H 3.484108 -0.587590 -3.005913
C 2.184135 0.798398 2.303871
H 2.816499 1.648633 2.639316
H 1.150104 1.144953 2.129113
H 2.154223 0.019564 3.094697
N 2.712933 0.266893 1.065808
N 2.926771 -0.442054 -0.995951
H 5.026606 -0.093726 -1.102771
H 4.527308 -0.606651 1.753853
C 0.118936 1.864858 -0.549097
O 0.354408 3.006631 -0.720981
C -0.082181 -1.170745 1.476665
N -0.078969 -1.844301 2.448308
