36

Ir -0.564326 0.123240 -0.368543
H -0.664375 0.332673 -2.048382
H -0.542877 -0.654982 -2.007283
N -2.773863 -0.315673 -0.259645
C -3.121296 -0.543520 1.167322
C -3.570208 0.811841 -0.800064
C -3.078839 -1.549190 -1.029885
H -3.347691 1.733293 -0.232456
H -4.658023 0.584528 -0.729438
H -3.299641 0.981105 -1.858396
H -2.436022 -2.368662 -0.660464
H -2.862064 -1.378842 -2.100211
H -4.152314 -1.816945 -0.910479
H -2.922857 0.376898 1.745352
H -2.485243 -1.356930 1.561837
H -4.196434 -0.818130 1.261056
P 1.646542 0.489718 -0.304416
C 4.719192 1.024167 -0.213579
C 4.256456 -0.294736 -0.051216
C 2.907689 -0.674662 -0.070744
C 2.458901 2.010361 -0.473156
C 3.855437 2.115522 -0.413007
H 5.803443 1.209403 -0.181559
H 5.001452 -1.092927 0.106113
H 2.627976 -1.731411 0.080719
H 1.835635 2.903999 -0.631652
H 4.300308 3.118035 -0.531528
C -0.817288 1.775260 0.501744
N -0.985923 2.897737 0.944461
C -1.030410 3.570890 2.209049
H -1.999274 4.099209 2.327337
H -0.234937 4.343715 2.253767
H -0.894604 2.875434 3.066398
N -0.319886 -1.881437 0.363304
C 0.372167 -2.826349 0.642231
S 1.295586 -4.099788 1.017770
