42

Ir -0.053436 -0.245417 -0.345206
H -0.202992 -0.562064 -2.013558
H 0.046099 0.367742 -2.071723
P 2.204189 -0.946114 -0.387303
C 3.085036 -0.688213 1.206914
C 3.287330 -0.086720 -1.600732
C 2.461605 -2.734515 -0.748941
H 3.134369 0.400927 1.411409
H 4.114488 -1.098313 1.164446
H 2.515329 -1.183453 2.016584
H 3.348141 0.986325 -1.325917
H 2.848987 -0.176517 -2.613454
H 4.307052 -0.522305 -1.594961
H 1.870086 -3.331364 -0.027283
H 3.532248 -3.015962 -0.685935
H 2.078959 -2.952829 -1.765117
C -1.991393 0.453193 -0.171724
C -4.220883 0.980491 -0.683627
C -3.877901 1.540275 0.702069
H -4.326081 1.784501 -1.449602
H -4.395126 0.989478 1.523259
C -1.721577 1.712493 1.977267
H -2.066579 1.123847 2.858328
H -0.638766 1.563501 1.822727
H -1.903757 2.788088 2.179026
C -3.003998 -0.632719 -2.187646
H -2.809383 -0.006754 -3.088880
H -2.202277 -1.388895 -2.099266
H -3.975456 -1.150322 -2.325462
N -3.046971 0.152561 -0.976422
N -2.431869 1.312348 0.781359
H -4.120270 2.616857 0.814289
H -5.151690 0.376826 -0.697527
C -0.471333 -1.705588 0.744984
N -0.747859 -2.730121 1.354718
C -0.776248 -3.123033 2.735890
H -0.098786 -3.987071 2.903000
H -1.796082 -3.460290 3.018096
H -0.474594 -2.301944 3.425011
N 0.764850 1.729883 0.056962
C 1.725026 2.417954 0.272702
S 3.042298 3.323401 0.563356
