41

Ir -0.024104 0.069953 -0.257493
H -0.117676 0.245647 -1.979818
H -0.118798 -0.721406 -1.873155
P -2.359116 -0.056078 0.013364
C -2.929611 0.415688 1.711093
C -3.106599 -1.730492 -0.248679
C -2.802402 -2.377831 -1.599779
C -3.357468 1.032136 -1.113111
C -2.957553 2.507922 -1.119366
C -2.235834 -0.348359 2.840936
H -2.729031 1.503522 1.805189
H -4.033272 0.278744 1.731296
H -2.702272 -2.363245 0.567662
H -4.200038 -1.612001 -0.082835
H -3.239851 0.595626 -2.127654
H -4.424376 0.898643 -0.828443
H -1.714542 -2.555482 -1.707057
H -3.309909 -3.360634 -1.673342
H -3.145811 -1.762127 -2.456479
H -3.069695 2.973144 -0.119008
H -1.899390 2.625291 -1.426944
H -3.591169 3.080277 -1.826728
H -2.402011 -1.441774 2.773971
H -1.141210 -0.182029 2.809438
H -2.614864 -0.005226 3.824592
P 2.288602 0.023841 -0.170700
C 5.410105 -0.077884 0.041654
C 4.681147 -1.265407 0.241731
C 3.285352 -1.352516 0.177298
C 3.411808 1.330023 -0.369691
C 4.797285 1.154246 -0.246532
H 6.507454 -0.114692 0.117193
H 5.241756 -2.187640 0.469956
H 2.762225 -2.304498 0.362384
H 2.997906 2.324484 -0.598439
H 5.443789 2.037216 -0.385713
C -0.052801 1.753967 0.619969
N -0.095396 2.747326 1.338601
H -0.135175 3.710142 0.983165
C 0.020309 -1.873910 0.445416
N 0.033575 -2.971659 0.881699
