36

Ir -0.299472 -0.120588 -0.303571
H -0.312160 -0.445062 -1.998317
H -0.343302 -1.342812 -1.645384
P -2.643730 0.003881 -0.249182
C -3.329050 0.285782 1.428002
C -3.506382 -1.486804 -0.881328
C -3.329113 1.380007 -1.260066
H -2.939424 -0.530816 2.065076
H -4.437680 0.279100 1.416721
H -2.959836 1.259070 1.804561
H -3.157827 -2.344740 -0.275986
H -3.228315 -1.643281 -1.941709
H -4.605773 -1.373633 -0.795464
H -2.885111 2.334873 -0.918090
H -4.433775 1.425084 -1.175751
H -3.042449 1.228551 -2.318770
P 2.021655 -0.097226 -0.174172
C 5.148227 0.056282 -0.078896
C 4.526082 -1.188205 0.129134
C 3.140375 -1.391979 0.108729
C 3.028375 1.298416 -0.405382
C 4.425782 1.236774 -0.332172
H 6.247033 0.108910 -0.042828
H 5.168444 -2.064222 0.322243
H 2.693399 -2.378991 0.299111
H 2.524526 2.255613 -0.612558
H 4.992466 2.170675 -0.486474
C -0.277650 1.718721 0.130516
N -0.287011 2.912757 0.381274
C -0.312358 3.736424 1.558839
H -1.174819 4.433753 1.517534
H 0.604140 4.360910 1.603496
H -0.378434 3.138676 2.494945
N -0.442896 -2.010210 0.865388
O 0.540795 -2.744863 1.009537
O -1.530422 -2.302205 1.403214
