38

Ir -0.320933 -0.020841 -0.358212
H -0.340369 -0.201754 -2.074244
H -0.174121 -1.103830 -1.872881
P -2.588418 -0.426120 -0.099563
C -3.032429 -0.633540 1.670321
C -3.123145 -2.006226 -0.867552
C -3.766068 0.836583 -0.732047
H -2.344808 -1.399370 2.080310
H -4.088303 -0.946551 1.800335
H -2.850659 0.321613 2.199592
H -2.443173 -2.790282 -0.479191
H -2.997396 -1.940284 -1.965723
H -4.176796 -2.248723 -0.622437
H -3.515638 1.814208 -0.275781
H -4.816725 0.569199 -0.499306
H -3.638635 0.929387 -1.828113
As 2.118938 0.232895 -0.225572
C 3.183602 -1.191799 -1.044249
C 2.817090 0.216169 1.603011
C 2.895419 1.867807 -0.974490
H 2.988048 -2.125210 -0.480965
H 4.262440 -0.945848 -0.995739
H 2.869997 -1.323170 -2.097007
H 2.622090 -0.786268 2.031673
H 2.282836 0.981526 2.196384
H 3.906141 0.418733 1.605901
H 2.707802 1.881389 -2.065079
H 3.983799 1.919869 -0.776354
H 2.380553 2.735967 -0.520407
C -0.533256 1.757864 0.159040
N -0.666985 2.950340 0.405238
C -0.725707 3.747069 1.599075
H -1.683309 4.308162 1.640528
H 0.085529 4.505671 1.595208
H -0.633549 3.139611 2.527943
N -0.102995 -1.976690 0.628276
C 0.799605 -2.614709 1.123838
O 1.690818 -3.261729 1.617338
