33

Ir -0.143037 0.086583 -0.299492
H -0.155068 -0.255475 -1.961514
H -0.133932 -1.176831 -1.555155
C -2.191093 0.038416 -0.091548
C -4.305805 0.435088 0.661685
C -4.374134 -0.597261 -0.232052
H -5.086606 0.929160 1.246862
H -5.225505 -1.191653 -0.575849
C -2.723052 -1.932009 -1.554505
H -2.220678 -1.564736 -2.469413
H -2.038054 -2.609270 -1.004561
H -3.643914 -2.474291 -1.836055
C -2.489969 1.842334 1.646404
H -1.537685 1.510580 2.100288
H -2.308746 2.797252 1.115976
H -3.246877 2.000817 2.436863
N -2.971522 0.809953 0.739393
N -3.082955 -0.823895 -0.684171
P 2.174741 -0.055152 -0.097748
C 5.287138 -0.247259 0.242995
C 4.750320 0.885670 -0.394045
C 3.379999 1.085302 -0.611203
C 3.089419 -1.326116 0.648651
C 4.486092 -1.294816 0.735896
H 6.378973 -0.315900 0.364397
H 5.448089 1.664252 -0.746426
H 3.029982 1.998494 -1.118346
H 2.497293 -2.153495 1.073317
H 4.988669 -2.145035 1.228093
C -0.034298 1.952601 -0.143070
O 0.077885 3.122618 -0.128811
S -0.324461 -1.966536 1.191767
H -0.651309 -1.323991 2.349055
