32

Ir -0.212570 -0.375046 -0.238030
H -0.372436 -0.763815 -1.893418
H -0.145759 0.172804 -1.983991
P 1.998428 -0.953075 -0.186443
C 2.812921 -0.560199 1.410498
C 3.038478 -0.099116 -1.435864
C 2.352597 -2.740549 -0.443000
H 2.793255 0.538849 1.558277
H 3.864697 -0.910945 1.410032
H 2.249521 -1.049004 2.228313
H 3.029820 0.989919 -1.224169
H 2.623638 -0.278523 -2.446413
H 4.081924 -0.470584 -1.387890
H 1.823655 -3.319755 0.338479
H 3.440762 -2.945499 -0.387292
H 1.963082 -3.049573 -1.432286
N -2.243165 0.317396 -0.153134
C -4.600112 0.483329 0.019408
O -3.935296 1.784467 0.045583
C -2.624270 1.547332 -0.046553
C -3.443431 -0.534758 -0.130217
H -3.493978 -1.129015 -1.065280
H -3.367448 -1.247876 0.715657
H -5.311228 0.485686 -0.830244
H -5.169734 0.378962 0.964236
H -1.926126 2.399055 -0.018190
C -0.561414 -1.732672 0.983928
N -0.770313 -2.587096 1.849792
H -1.048285 -3.547635 1.608255
N 0.355842 1.715535 0.082614
C 1.308987 2.425974 0.272460
S 2.608711 3.361813 0.522961
