33

Ir -0.385121 0.027666 0.176533
H -0.437978 -0.100771 1.873405
H -0.401963 -1.063370 1.667093
As 1.976963 -0.100852 0.028317
C 2.669150 0.181175 -1.779506
C 2.608825 -1.890425 0.470157
C 3.068812 1.119845 1.098655
H 2.189133 -0.562812 -2.442960
H 3.769961 0.061150 -1.810638
H 2.382785 1.197037 -2.111375
H 1.908836 -2.555464 -0.075549
H 2.491125 -2.052477 1.558333
H 3.662030 -2.043198 0.165351
H 2.809883 2.158557 0.817189
H 4.148420 0.937395 0.931164
H 2.819981 0.969386 2.166270
N -2.605308 -0.229527 0.007372
C -2.944596 -0.128452 -1.433044
C -2.947640 -1.595580 0.480479
C -3.347956 0.787985 0.781570
H -2.278088 -2.304524 -0.048386
H -4.018887 -1.816966 0.272132
H -2.763082 -1.662209 1.568468
H -3.089921 1.798056 0.413199
H -3.059549 0.721781 1.846694
H -4.446688 0.627825 0.684502
H -2.350170 -0.888851 -1.972224
H -2.677835 0.876032 -1.808575
H -4.031964 -0.314976 -1.591457
C -0.425074 1.827049 -0.261469
O -0.443810 2.982012 -0.512390
O -0.296972 -1.894629 -0.864886
H -0.137204 -1.685725 -1.804558
