34

Ir 0.147954 -0.158166 -0.164722
H 0.198770 -0.545756 -1.840250
H 0.232517 0.391803 -1.921234
N 2.293754 -0.193459 -0.177425
C 4.528113 0.558033 -0.352331
O 4.422264 -0.725192 0.345294
C 3.110920 -0.987759 0.429106
C 3.106318 0.820655 -0.881868
H 3.002617 0.656004 -1.975935
H 2.690912 1.822602 -0.644543
H 5.301893 0.456138 -1.136983
H 4.862614 1.310840 0.392116
H 2.808942 -1.870224 1.012630
C -1.845918 -0.036307 -0.104556
C -4.104514 -0.069725 -0.732709
C -3.996813 0.375142 0.730049
H -4.370824 0.777122 -1.409417
H -4.356043 -0.411570 1.436194
C -2.009935 1.096145 2.118664
H -1.862935 0.292127 2.874947
H -1.046001 1.600850 1.902953
H -2.716162 1.844522 2.530637
C -2.431657 -1.153588 -2.272429
H -2.295647 -0.407798 -3.089459
H -1.499926 -1.741090 -2.169971
H -3.256390 -1.837976 -2.557556
N -2.743734 -0.534625 -1.006680
N -2.555491 0.575774 0.881054
H -4.557132 1.307410 0.946014
H -4.845411 -0.879621 -0.892777
C 0.096461 -1.460938 1.150007
N 0.104952 -2.417689 1.933803
H 0.111836 -2.251667 2.950463
Cl 0.377153 2.388627 0.093798
