35

Ir -0.087347 -0.134840 0.227175
H -0.160487 -0.516059 1.866593
H -0.165277 -1.450961 1.476928
As 2.270639 -0.335236 0.041759
C 2.954489 0.080184 -1.744068
C 2.866168 -2.172999 0.300502
C 3.417163 0.748586 1.201107
H 2.417094 -0.574777 -2.455492
H 4.045643 -0.099254 -1.810258
H 2.722417 1.136550 -1.976981
H 2.184689 -2.762937 -0.344721
H 2.706241 -2.457433 1.357729
H 3.928252 -2.307243 0.018039
H 3.163158 1.814016 1.041242
H 4.488845 0.573350 0.983114
H 3.197783 0.489247 2.254289
N -2.217901 -0.216206 0.081940
C -4.998982 -0.513042 -0.088099
C -4.137201 -1.501750 -0.588229
C -2.753667 -1.324889 -0.488925
C -3.041052 0.746783 0.560491
C -4.433748 0.632447 0.492346
H -6.091622 -0.632312 -0.148722
H -4.528684 -2.417230 -1.056020
H -1.982936 -2.031608 -0.869561
H -2.546011 1.623818 1.003181
H -5.061098 1.440263 0.896401
C -0.044146 1.727126 0.056265
N -0.030811 2.956816 0.068185
C 0.028424 3.954650 -0.965160
H 0.904747 4.619763 -0.808952
H -0.871584 4.605042 -0.925385
H 0.097008 3.517713 -1.987922
O -0.007055 -1.885405 -1.106686
H -0.000829 -1.488061 -1.998768
