54

Ir 1.265698 -0.160874 0.294303
H 1.192790 -0.053445 2.138438
H 1.218141 0.800379 2.084895
P -1.071537 0.006339 0.034977
C -1.606374 -2.581225 0.983102
C -1.978866 -1.604851 0.034914
C -1.573462 0.769891 -1.568139
C -0.841593 0.418352 -2.722311
C -1.207873 0.936498 -3.972442
C -2.298840 1.816565 -4.079649
C -3.025480 2.171761 -2.932541
C -2.668586 1.648536 -1.678503
C -1.979546 0.988548 1.312782
C -1.539883 2.303125 1.587633
C -2.203695 3.074719 2.552094
C -3.300653 2.547358 3.254742
C -3.736819 1.241137 2.985051
C -3.082886 0.462230 2.016040
C -3.039662 -1.873438 -0.853546
C -3.715905 -3.102621 -0.792753
C -3.345825 -4.067501 0.157271
C -2.291061 -3.803161 1.046776
H -0.765194 -2.379091 1.664826
H 0.027176 -0.252640 -2.620061
H -0.631794 0.658701 -4.868541
H -2.579177 2.230985 -5.060329
H -3.877235 2.864955 -3.010646
H -3.239614 1.931118 -0.781247
H -0.673836 2.707453 1.031492
H -1.856261 4.099211 2.757632
H -3.816249 3.155686 4.014078
H -4.595365 0.820068 3.530834
H -3.435836 -0.558881 1.809567
H -3.337192 -1.120893 -1.599072
H -4.537911 -3.306483 -1.496200
H -3.876462 -5.031111 0.200966
H -1.990874 -4.558277 1.789334
P 3.606159 -0.060383 0.172828
C 4.381361 1.201855 1.263151
C 4.220919 0.368467 -1.504194
C 4.515367 -1.609405 0.590046
H 3.940757 2.183613 0.999957
H 5.481133 1.227063 1.124990
H 4.142283 0.968760 2.319105
H 3.742015 1.328812 -1.780002
H 3.893824 -0.415043 -2.214624
H 5.325578 0.462900 -1.522824
H 4.282020 -1.894022 1.634614
H 5.610781 -1.480256 0.476056
H 4.166270 -2.424359 -0.073724
C 1.306653 -1.913822 -0.280424
O 1.380340 -3.009586 -0.703750
S 1.420842 2.298817 -0.341106
H 1.012210 2.170296 -1.634831
