44

Ir -0.149872 0.196355 -0.252124
H -0.237482 0.940085 -1.766098
H -0.077370 0.022181 -2.065911
C -2.184840 -0.203763 -0.300922
C -4.415686 -0.175584 -0.784744
C -4.206631 -1.153113 0.151751
H -5.330742 0.154287 -1.285494
H -4.905793 -1.841821 0.635337
C -2.212075 -2.008325 1.428850
H -2.902522 -2.831578 1.689825
H -1.269224 -2.403992 0.996512
H -1.974360 -1.419577 2.338217
C -2.953832 1.480305 -1.982067
H -2.246054 2.206310 -1.539463
H -2.517867 1.099258 -2.928284
H -3.917132 1.978270 -2.199358
N -3.176439 0.396782 -1.040043
N -2.849042 -1.153526 0.434124
C 1.912264 0.379769 -0.143293
C 4.088588 -0.270042 0.460374
C 4.176149 0.707317 -0.719149
H 4.747935 0.006330 1.309384
H 4.745409 0.296638 -1.579071
C 2.420170 1.734959 -2.192804
H 2.493212 1.184286 -3.157173
H 1.387466 2.108113 -2.070632
H 3.107727 2.607278 -2.238524
C 2.210683 -0.928887 1.981919
H 2.697833 -0.544231 2.904475
H 1.115304 -0.810524 2.063460
H 2.454784 -2.007193 1.868462
N 2.673549 -0.182270 0.832929
N 2.765097 0.904498 -1.064928
H 4.641926 1.682155 -0.440751
H 4.318856 -1.318020 0.162421
C -0.389706 1.344307 1.200533
N -0.556820 2.194417 2.067381
C -0.586980 2.168371 3.502719
H -1.552330 2.572010 3.876251
H 0.210945 2.821036 3.917561
H -0.451842 1.145195 3.923848
N 0.263909 -1.991286 -0.402253
C 1.283541 -2.645071 -0.448591
O 2.288727 -3.315949 -0.464926
