34

Ir 0.075100 0.011573 -0.286089
H 0.153771 -0.015746 -2.021767
H 0.087859 -0.933129 -1.902032
P -2.183717 0.258717 -0.241537
C -2.912443 0.100478 1.440139
C -3.126259 -0.981302 -1.222894
C -2.826837 1.877146 -0.842834
H -2.731979 -0.929378 1.806650
H -4.003589 0.297195 1.421681
H -2.407496 0.818444 2.114475
H -2.973872 -1.982076 -0.772242
H -2.749890 -0.990893 -2.263933
H -4.208783 -0.741556 -1.218295
H -2.377589 2.682978 -0.230534
H -3.932521 1.925871 -0.773351
H -2.508866 2.022215 -1.893387
N 2.198732 -0.322287 -0.174592
C 4.434899 -0.100951 -0.222959
C 3.235669 0.541477 -0.465142
N 4.092003 -1.365867 0.219298
C 2.736869 -1.469510 0.239898
H 4.740592 -2.104913 0.491317
H 5.473796 0.226100 -0.325303
H 3.045227 1.557829 -0.823313
H 2.135128 -2.337108 0.545373
C 0.234127 1.640139 0.596745
N 0.324196 2.678450 1.242863
C 0.521225 4.061749 0.906717
H 1.442851 4.447129 1.392445
H -0.320154 4.674482 1.295207
H 0.603230 4.234983 -0.190751
N -0.094461 -2.084022 0.442341
C -1.031942 -2.757277 0.814333
O -1.966222 -3.429983 1.178282
