33

Ir 0.249838 0.119201 0.243174
H 0.252912 0.220800 2.016066
H 0.215646 -0.695626 1.910461
P 2.561299 -0.100296 0.029548
C 3.090689 -0.448880 -1.693778
C 3.261586 -1.499837 0.992311
C 3.573475 1.352943 0.528448
H 2.554528 -1.357261 -2.031735
H 4.187407 -0.599996 -1.758680
H 2.786011 0.397521 -2.338881
H 2.739878 -2.422932 0.671924
H 3.064525 -1.337543 2.069749
H 4.352605 -1.598851 0.821609
H 3.258176 2.230271 -0.069714
H 4.655332 1.165431 0.373140
H 3.382961 1.577028 1.595940
As -2.190452 -0.043438 0.030530
C -3.275955 1.517455 0.500115
C -2.993073 -1.492257 1.066938
C -2.769187 -0.458204 -1.786980
H -3.115533 1.755625 1.568832
H -4.350143 1.323608 0.312627
H -2.934670 2.376312 -0.109234
H -2.810851 -1.310977 2.143247
H -2.484725 -2.427929 0.764689
H -4.080844 -1.562527 0.871661
H -2.461360 0.370305 -2.452391
H -3.866588 -0.600473 -1.832471
H -2.240220 -1.381296 -2.092445
C 0.274691 1.871028 -0.444476
O 0.290015 2.941244 -0.929877
C 0.193075 -1.799964 -0.518983
N 0.152996 -2.877958 -1.004577
