33

Ir -0.000001 -0.015817 0.175841
H 0.000000 -0.221068 1.844676
H 0.000001 -1.188670 1.635029
N 2.147310 -0.171522 0.016426
C 2.448189 -0.121641 -1.442611
C 2.885546 0.892055 0.736853
C 2.550909 -1.511244 0.527730
H 2.574479 1.881205 0.355047
H 3.982906 0.760575 0.599909
H 2.637069 0.841624 1.812674
H 1.915478 -2.262525 0.020887
H 2.372974 -1.553960 1.617501
H 3.629135 -1.689697 0.318623
H 2.176338 0.873967 -1.835996
H 1.824538 -0.894673 -1.931252
H 3.530581 -0.314949 -1.618683
N -2.147312 -0.171515 0.016425
C -2.448185 -0.121670 -1.442614
C -2.550919 -1.511222 0.527761
C -2.885547 0.892082 0.736823
H -1.915493 -2.262519 0.020935
H -3.629146 -1.689675 0.318658
H -2.372984 -1.553914 1.617533
H -2.574476 1.881222 0.354991
H -2.637073 0.841679 1.812645
H -3.982907 0.760603 0.599879
H -1.824532 -0.894713 -1.931234
H -2.176332 0.873929 -1.836021
H -3.530578 -0.314979 -1.618686
C 0.000012 1.777562 -0.234964
N 0.000017 3.016765 -0.344493
H 0.000016 3.440692 -1.282983
F -0.000002 -1.843094 -0.965137
