39

Ir 0.112892 -0.086966 -0.178992
H 0.221682 -0.464393 -1.865225
H 0.150145 -1.347046 -1.586494
As -2.308684 -0.391835 0.028953
C -2.852293 -0.355183 1.905840
C -2.895639 -2.167567 -0.531315
C -3.601584 0.832866 -0.803037
H -2.215236 -1.107343 2.407582
H -3.924373 -0.604255 2.028472
H -2.636541 0.649128 2.316882
H -2.183705 -2.851810 -0.029082
H -2.792949 -2.258246 -1.629547
H -3.939533 -2.372736 -0.224454
H -3.379728 1.858611 -0.449861
H -4.642839 0.561990 -0.539606
H -3.472385 0.800906 -1.901961
C 2.155225 -0.162417 -0.010393
C 4.267419 -1.035964 0.005878
C 4.378729 0.304717 0.252990
H 5.029185 -1.818215 -0.062114
H 5.256507 0.928216 0.446949
C 2.798228 2.228276 0.454093
H 2.350942 2.673473 -0.455467
H 2.078631 2.354842 1.283476
H 3.741342 2.752944 0.694458
C 2.390402 -2.635454 -0.451990
H 1.402625 -2.735037 0.066657
H 2.265295 -2.757111 -1.548430
H 3.107597 -3.393059 -0.082860
N 2.916927 -1.307065 -0.145920
N 3.090251 0.821301 0.241148
C -0.133882 1.726256 0.125468
N -0.455566 2.884871 0.396784
C -0.660961 4.049921 -0.422554
H 0.068102 4.846317 -0.155390
H -1.671041 4.477442 -0.243098
H -0.562110 3.838729 -1.512174
O -0.115848 -2.013502 0.931954
H 0.233913 -1.804799 1.818646
