29

Ir -0.161221 0.102816 0.196693
H -0.111006 0.044821 1.924918
H -0.094875 -0.876389 1.767927
N 1.906694 0.065264 0.160278
C 4.075388 0.619367 0.366103
C 2.781333 1.055134 0.571717
N 3.958074 -0.646755 -0.175946
C 2.640284 -0.956765 -0.293001
H 4.726407 -1.258760 -0.450698
H 5.042704 1.093615 0.555152
H 2.414146 2.000930 0.979855
H 2.200286 -1.887239 -0.682693
N -2.335879 0.031351 0.162282
C -2.825483 -1.105158 0.992687
C -2.938321 1.290311 0.670287
C -2.771609 -0.192264 -1.247686
H -2.603020 1.465233 1.708765
H -4.049669 1.222189 0.642006
H -2.604657 2.136806 0.044214
H -2.292915 -1.120500 -1.613367
H -2.437228 0.656507 -1.870765
H -3.880705 -0.278828 -1.291293
H -2.546783 -0.932396 2.048391
H -2.342199 -2.033700 0.633621
H -3.932636 -1.182296 0.913247
C -0.162560 1.677203 -0.764658
N -0.170406 2.678632 -1.492118
H -0.143237 3.625475 -1.089909
Cl -0.190246 -2.342278 -0.689347
