31

Ir 0.157118 0.098146 0.177603
H 0.063884 0.087925 1.907782
H 0.035374 -0.833864 1.775892
P 2.432895 0.047561 0.134736
C 3.095310 -0.331735 -1.535071
C 3.158910 -1.252150 1.209960
C 3.290914 1.597713 0.630319
H 2.608524 -1.273768 -1.857186
H 4.198773 -0.437789 -1.523372
H 2.799008 0.478352 -2.228943
H 2.697825 -2.210641 0.898896
H 2.886060 -1.048272 2.263631
H 4.261975 -1.291848 1.107451
H 2.924148 2.425527 -0.007416
H 4.391132 1.500969 0.531908
H 3.028768 1.832986 1.680070
N -2.015540 0.027616 0.101666
C -4.819744 -0.075920 0.065256
C -4.053352 -1.207035 -0.249887
C -2.656653 -1.121096 -0.223575
C -2.751472 1.125447 0.401164
C -4.150420 1.111974 0.394077
H -5.919661 -0.117630 0.053096
H -4.525689 -2.162922 -0.519335
H -1.992140 -1.971260 -0.465691
H -2.180964 2.033315 0.645438
H -4.699748 2.030733 0.645534
C 0.169834 1.711151 -0.727608
N 0.153639 2.853627 -1.198471
H 0.180884 3.005506 -2.215875
Cl 0.351982 -2.343341 -0.617562
