29

Ir -0.234227 -0.125058 -0.165407
H -0.321220 -0.072082 -1.959583
H -0.341407 0.811812 -1.863298
As 2.141932 0.005053 -0.072447
C 2.878604 0.499388 1.668925
C 2.948056 1.321727 -1.269940
C 3.123593 -1.639332 -0.490851
H 2.448502 1.484574 1.929490
H 3.984219 0.550872 1.628383
H 2.555485 -0.252211 2.413714
H 2.503885 2.300980 -1.007875
H 2.686359 1.064968 -2.314079
H 4.048423 1.342127 -1.146494
H 2.780855 -2.436063 0.196916
H 4.215598 -1.488408 -0.383585
H 2.882818 -1.941867 -1.527701
N -2.376674 -0.037507 -0.097974
C -4.554643 -0.591379 -0.184663
C -3.266502 -1.076964 -0.295628
N -4.418333 0.758502 0.081709
C -3.094434 1.063876 0.129867
H -5.178150 1.424893 0.221370
H -5.529122 -1.081291 -0.270001
H -2.917525 -2.094392 -0.497885
H -2.638011 2.046040 0.334809
C -0.206856 -1.822871 0.555168
O -0.167678 -2.899429 1.037419
S -0.110439 2.332238 0.539076
H -0.122411 2.108804 1.884912
