39

Ir -0.070163 -0.188686 -0.206640
H -0.245200 -0.649156 -1.921284
H -0.206531 -1.481294 -1.533202
N -2.242454 -0.175658 -0.148722
C -2.957491 -1.236030 0.300873
C -4.359302 -1.210073 0.294579
N -5.072596 -0.156773 -0.134917
C -4.352321 0.891279 -0.565333
C -2.951570 0.894445 -0.583563
H -2.367601 -2.088297 0.677903
H -4.919769 -2.088463 0.659247
H -4.905119 1.778033 -0.921847
H -2.367675 1.749976 -0.952319
C 1.929629 -0.190091 -0.160939
C 4.179863 -0.443907 -0.763486
C 4.099845 0.044140 0.686357
H 4.480272 -1.517165 -0.827284
H 4.416390 1.109851 0.789856
C 2.169962 0.169150 2.308602
H 2.011960 1.256416 2.482178
H 1.208483 -0.360439 2.442754
H 2.901478 -0.218094 3.045956
C 2.452897 -0.532692 -2.591449
H 2.323031 -1.619146 -2.802124
H 1.508747 -0.011178 -2.838809
H 3.257405 -0.142784 -3.247376
N 2.798103 -0.271872 -1.214976
N 2.672492 -0.093364 0.974045
H 4.710600 -0.561279 1.386438
H 4.882667 0.144741 -1.388035
C -0.009810 1.611613 0.345505
N 0.077761 2.689033 0.932711
C 0.055208 4.048626 0.457192
H 0.996243 4.566177 0.740844
H -0.771504 4.609049 0.943280
H -0.067022 4.125246 -0.647899
C -0.050153 -1.896537 0.961834
C -0.046378 -2.866835 1.735600
H -0.039687 -3.711433 2.411388
