27

Ir -0.039579 0.102169 -0.158335
H -0.069734 0.166912 -1.891487
H -0.058524 -0.780435 -1.768774
N -2.116914 0.039735 -0.147647
C -4.278788 0.651180 -0.245918
C -2.979459 1.117492 -0.257926
N -4.179658 -0.722907 -0.128109
C -2.865294 -1.065725 -0.069022
H -4.956154 -1.383112 -0.092864
H -5.239130 1.170841 -0.311279
H -2.598438 2.140779 -0.326915
H -2.432826 -2.071244 0.060475
N 2.015369 0.120112 -0.178935
C 4.260391 -0.467739 0.237340
O 4.133987 0.537982 -0.821271
C 2.819227 0.720896 -0.995062
C 2.846537 -0.574509 0.830852
H 2.725076 -0.043660 1.798951
H 2.453808 -1.607923 0.948059
H 5.035454 -0.119253 0.945818
H 4.602142 -1.408637 -0.243711
H 2.501851 1.379555 -1.815609
C -0.070585 1.670458 0.837909
N -0.110070 2.770846 1.403741
H -0.115809 2.818115 2.433055
S 0.037113 -2.377870 0.530392
H -0.119117 -2.153729 1.867619
