61

Ir -1.110947 -0.180012 -0.289022
H -0.975266 -0.502844 -2.020365
H -0.970387 0.393637 -2.092496
P 1.251130 -0.217397 -0.102318
C 1.406169 -3.008972 -0.395067
C 1.994344 -1.881742 0.216686
C 1.887065 0.831195 1.271203
C 1.099479 0.942474 2.435536
C 1.537863 1.732720 3.506404
C 2.761809 2.416600 3.425350
C 3.550285 2.305178 2.270279
C 3.116326 1.516426 1.193618
C 2.148758 0.383510 -1.599778
C 2.043537 1.749952 -1.947001
C 2.649594 2.221055 -3.120474
C 3.354861 1.343103 -3.960877
C 3.461240 -0.013366 -3.617176
C 2.863942 -0.493620 -2.440073
C 3.126223 -2.054041 1.038249
C 3.660312 -3.336276 1.243711
C 3.075269 -4.454324 0.627383
C 1.948490 -4.287633 -0.195177
H 0.504675 -2.870815 -1.013343
H 0.131559 0.420061 2.481484
H 0.911324 1.826978 4.406503
H 3.096173 3.049692 4.261586
H 4.505086 2.848026 2.197447
H 3.730216 1.448065 0.282974
H 1.508410 2.460074 -1.296280
H 2.566344 3.289127 -3.373815
H 3.826138 1.718196 -4.882579
H 4.018159 -0.707238 -4.265874
H 2.959603 -1.557477 -2.175828
H 3.586684 -1.182577 1.527888
H 4.540153 -3.461503 1.893587
H 3.495931 -5.458459 0.791790
H 1.481774 -5.160591 -0.677602
C -3.159145 -0.027828 -0.309793
C -5.361796 -0.053732 -0.882978
C -5.260812 0.528105 0.353250
H -6.233582 -0.250684 -1.513792
H -6.029580 0.935259 1.016605
C -3.365441 1.044166 1.937521
H -2.923260 0.213008 2.520813
H -2.571466 1.781410 1.711703
H -4.179190 1.518511 2.515738
C -3.727816 -1.030068 -2.528267
H -3.327024 -0.289504 -3.249696
H -2.951845 -1.797935 -2.347173
H -4.630906 -1.503858 -2.955410
N -4.070903 -0.394525 -1.267189
N -3.914882 0.531966 0.686173
C -1.230788 -1.577927 0.931775
N -1.286017 -2.407746 1.827201
C -1.236101 -3.837353 1.933984
H -1.964019 -4.194754 2.691273
H -0.225579 -4.154623 2.269602
H -1.450032 -4.346874 0.967663
N -1.013388 1.979402 -0.062212
C -0.452710 3.020763 0.148659
S 0.312278 4.426603 0.412974
