33

Ir -0.193435 0.062428 -0.172904
H -0.248039 -0.437298 -1.779474
H -0.324834 -1.314620 -1.323889
N -2.360147 -0.025319 -0.133570
C -4.547637 0.387755 -0.446328
C -3.269426 0.844984 -0.703199
N -4.383922 -0.773101 0.288612
C -3.053603 -0.995644 0.462140
H -5.129507 -1.367985 0.649872
H -5.532488 0.780231 -0.716321
H -2.937042 1.741533 -1.236715
H -2.579276 -1.818239 1.019677
C 1.804213 0.020308 -0.133175
C 4.066657 0.537448 0.287674
C 3.994150 -0.671297 -0.650746
H 4.701515 1.357408 -0.109132
H 4.606474 -1.528713 -0.301805
C 2.105315 -2.240291 -1.208676
H 2.923605 -2.984369 -1.133553
H 1.239265 -2.611354 -0.625363
H 1.825370 -2.137214 -2.281435
C 2.349484 2.043949 1.277838
H 1.314339 1.928733 1.644855
H 3.041906 2.017382 2.147599
H 2.448291 3.032648 0.779349
N 2.666555 0.949504 0.387719
N 2.570526 -0.997159 -0.630261
H 4.324585 -0.421296 -1.686868
H 4.457946 0.269231 1.297934
C -0.333341 1.910451 -0.036377
N -0.573320 3.111309 -0.220829
H -0.644232 3.754732 0.579142
Cl -0.160358 -1.879436 1.497243
