36

Ir -0.338523 -0.408750 0.112351
H -0.567682 -0.932458 1.716981
H -0.342099 -0.002981 1.888422
N -2.433801 0.174732 0.122262
C -5.131859 0.952804 0.169412
C -4.775963 -0.403412 0.200191
C -3.421421 -0.751608 0.176508
C -2.773956 1.486523 0.087311
C -4.107617 1.908717 0.111483
H -6.189042 1.258348 0.188405
H -5.536231 -1.196602 0.242022
H -3.093742 -1.801162 0.200349
H -1.920136 2.183010 0.036663
H -4.329194 2.985389 0.082240
C 1.653394 -0.713444 0.080575
C 3.863227 -0.797810 0.858358
C 3.875603 -0.471568 -0.642064
H 4.156704 0.082614 1.473860
H 4.345841 -1.270706 -1.259759
C 2.060422 0.147389 -2.253254
H 2.471494 -0.502016 -3.056658
H 0.959317 0.167544 -2.323633
H 2.447864 1.180750 -2.380984
C 2.036995 -1.533275 2.423348
H 1.907314 -0.669586 3.114615
H 1.081707 -2.085332 2.361462
H 2.805846 -2.209214 2.849276
N 2.453384 -1.124405 1.102894
N 2.449469 -0.360802 -0.955960
H 4.381449 0.490899 -0.861955
H 4.520690 -1.649684 1.129729
C -0.595248 -1.709430 -1.187543
O -0.756501 -2.576042 -1.966134
N 0.215513 1.731705 -0.040749
C 1.250612 2.348250 -0.014998
S 2.663818 3.145368 0.001371
