28

Ir 0.327437 -0.081946 -0.193316
H 0.444743 -0.441652 -1.873566
H 0.443803 0.582135 -1.833293
N 2.471346 0.005617 -0.133318
C 4.643066 -0.527192 -0.345752
C 3.352709 -0.977691 -0.541030
N 4.514974 0.742312 0.186294
C 3.194213 1.037223 0.304977
H 5.279142 1.364146 0.451862
H 5.614454 -0.992909 -0.535570
H 2.995450 -1.931464 -0.941457
H 2.761047 1.969512 0.690832
P -1.915812 -0.010945 -0.110496
C -5.038994 0.092818 -0.029456
C -4.407149 -1.163435 -0.004244
C -3.018182 -1.346895 -0.041655
C -2.926723 1.395794 -0.124856
C -4.323496 1.303257 -0.087668
H -6.138346 0.130680 0.000479
H -5.041416 -2.064641 0.045452
H -2.589929 -2.361147 -0.021142
H -2.413513 2.369197 -0.146474
H -4.896945 2.245705 -0.099425
C 0.359920 -1.718079 0.778941
O 0.388814 -2.717439 1.390640
C 0.305658 1.875735 0.496789
C 0.315859 3.038644 0.926031
H 0.310004 4.047411 1.316677
