34

Ir 0.000002 -0.165119 -0.182809
H 0.000001 -0.634252 -1.866100
H 0.000002 -1.503001 -1.399009
N -2.088492 -0.179172 -0.231601
C -4.896813 -0.253006 -0.470841
C -4.168428 0.879084 -0.864780
C -2.777220 0.880017 -0.736700
C -2.794665 -1.272944 0.164539
C -4.186773 -1.341896 0.052757
H -5.992436 -0.283965 -0.568918
H -4.665750 1.767621 -1.279676
H -2.166024 1.739473 -1.043526
H -2.190780 -2.087218 0.593639
H -4.700053 -2.255662 0.385616
N 2.088494 -0.179164 -0.231601
C 4.896816 -0.252990 -0.470838
C 4.186773 -1.341907 0.052700
C 2.794664 -1.272958 0.164483
C 2.777225 0.880051 -0.736641
C 4.168434 0.879122 -0.864717
H 5.992439 -0.283945 -0.568914
H 4.700050 -2.255692 0.385512
H 2.190779 -2.087254 0.593541
H 2.166033 1.739525 -1.043424
H 4.665759 1.767681 -1.279564
C -0.000009 1.675793 0.261402
N -0.000017 2.854802 0.609070
C -0.000030 3.481272 1.909031
H -0.890686 4.136267 2.013571
H 0.890606 4.136291 2.013578
H -0.000024 2.743422 2.742249
C 0.000009 -1.702683 1.207260
C 0.000020 -2.583053 2.083171
H 0.000030 -3.323786 2.871685
