47

Ir 0.087570 0.028890 -0.376233
H 0.071595 -0.083938 -2.117230
H 0.047668 -0.990954 -1.982670
P -2.239109 0.068088 -0.204599
C -2.868091 0.760248 1.399776
C -3.087513 -1.581869 -0.303021
C -2.686498 -2.442801 -1.502093
C -3.148434 1.060709 -1.487021
C -2.639198 2.489335 -1.682401
C -2.193726 0.168730 2.640202
H -2.693024 1.855932 1.345206
H -3.969749 0.608013 1.415978
H -2.859445 -2.117043 0.642112
H -4.178924 -1.366772 -0.297834
H -3.049215 0.482019 -2.430351
H -4.226471 1.042301 -1.212796
H -1.609172 -2.695592 -1.449961
H -3.260648 -3.391319 -1.502538
H -2.879109 -1.936868 -2.470749
H -2.727923 3.094103 -0.757280
H -1.569252 2.491750 -1.969084
H -3.217862 3.005099 -2.475531
H -2.330522 -0.928800 2.717723
H -1.101143 0.355556 2.610099
H -2.604155 0.627415 3.562753
As 2.517513 -0.184561 -0.181516
C 3.247116 -1.779902 -1.041566
C 3.073495 -0.417566 1.677077
C 3.677012 1.264230 -0.809149
H 2.637009 -2.630109 -0.680536
H 4.314957 -1.925491 -0.787640
H 3.125259 -1.685396 -2.137468
H 2.481569 -1.260227 2.081904
H 2.819949 0.502166 2.237645
H 4.158054 -0.627881 1.754680
H 3.552456 1.370864 -1.903637
H 4.738821 1.061915 -0.568077
H 3.348864 2.204314 -0.325532
C 0.164421 1.781278 0.242450
N 0.218387 2.952893 0.595776
C 0.248787 3.634353 1.859993
H -0.641581 4.290858 1.963046
H 1.138960 4.295400 1.921031
H 0.268770 2.934776 2.726176
N 0.154621 -1.988640 0.478743
C -0.460862 -2.627023 1.304131
O -1.073754 -3.293192 2.100949
