37

Ir -0.203897 -0.229423 0.158493
H -0.228846 -0.555677 1.962340
H -0.104178 0.282773 2.061564
P -2.540824 0.001454 0.104179
C -3.049168 1.046624 -1.320406
C -3.271619 0.865668 1.555063
C -3.562777 -1.522019 -0.084939
H -2.476829 1.991525 -1.228213
H -4.140280 1.243716 -1.327498
H -2.747059 0.536889 -2.255945
H -2.707948 1.814223 1.664202
H -3.120416 0.251429 2.464306
H -4.352609 1.067667 1.414580
H -3.209878 -2.067062 -0.982665
H -4.641009 -1.285653 -0.191864
H -3.411096 -2.173688 0.797678
C 1.846608 -0.112526 0.013173
C 4.132327 -0.094656 0.563819
C 3.930216 0.626197 -0.783798
H 4.465317 0.598030 1.370702
H 4.434176 0.105602 -1.629511
C 1.820585 1.274691 -2.056170
H 1.076846 0.604576 -2.529653
H 1.284941 2.174823 -1.686902
H 2.586828 1.557142 -2.803950
C 2.549259 -1.395220 2.039158
H 2.542674 -0.773076 2.964021
H 1.567866 -1.895840 1.939810
H 3.339289 -2.168321 2.147539
N 2.791939 -0.610962 0.854476
N 2.474339 0.588083 -0.953962
H 4.299759 1.673194 -0.767590
H 4.872597 -0.921603 0.508990
C -0.273338 -1.525474 -1.134680
N -0.340889 -2.280216 -2.112718
H -0.335237 -3.300899 -1.987379
Cl -0.258398 2.354465 0.415699
