33

Ir -0.170757 0.082835 -0.193279
H -0.284317 -0.028709 -1.867312
H -0.202289 -1.015577 -1.613104
C -2.214726 -0.144305 -0.000996
C -4.451079 0.163839 0.321600
C -4.260452 -1.144195 -0.031809
H -5.362529 0.714480 0.571668
H -4.973073 -1.965286 -0.152491
C -2.288437 -2.588083 -0.608262
H -2.070435 -2.593110 -1.695867
H -1.342667 -2.680661 -0.018501
H -2.996106 -3.404222 -0.371138
C -2.987617 2.154670 0.688000
H -2.227776 2.235976 1.487301
H -2.638995 2.737334 -0.185570
H -3.943592 2.576858 1.047885
N -3.197792 0.759391 0.337115
N -2.899767 -1.317182 -0.221542
P 2.146506 -0.031984 -0.075250
C 5.234920 -0.405027 0.236410
C 4.757206 0.793093 -0.323705
C 3.398702 1.082451 -0.520766
C 2.987886 -1.398073 0.580016
C 4.383144 -1.442710 0.664658
H 6.322189 -0.536674 0.346483
H 5.495366 1.554620 -0.627840
H 3.097266 2.045783 -0.961693
H 2.328428 -2.208068 0.932065
H 4.844763 -2.347898 1.095388
C -0.075066 1.928754 0.087646
O 0.100301 3.090754 0.160971
O 0.015880 -1.783556 0.940428
H -0.248942 -1.538878 1.847034
