46

Ir 0.400777 -0.231175 -0.180938
H 0.363405 -0.562710 -1.869491
H 0.348744 -1.471212 -1.583740
P -1.848393 -0.146461 0.036922
C -2.414929 0.695045 1.591910
C -2.602705 -1.837866 0.151742
C -2.655008 -2.612590 -1.165917
C -2.823832 0.714305 -1.289721
C -2.421628 2.169036 -1.537503
C -1.761214 0.150272 2.863165
H -2.155614 1.766926 1.464589
H -3.523912 0.621410 1.632095
H -1.915158 -2.359521 0.852341
H -3.609170 -1.740098 0.613583
H -2.661886 0.110553 -2.207296
H -3.901315 0.622611 -1.027417
H -1.646650 -2.679103 -1.622202
H -3.006225 -3.649338 -0.987950
H -3.342282 -2.153495 -1.906065
H -2.583964 2.805713 -0.643841
H -1.347537 2.233559 -1.803092
H -3.013971 2.604577 -2.367816
H -1.981554 -0.925825 3.017371
H -0.660303 0.274659 2.806098
H -2.122825 0.697687 3.757290
N 2.657889 -0.486945 -0.116230
C 3.352737 0.493616 -0.973513
C 3.058374 -0.307916 1.298885
C 2.985052 -1.871031 -0.536099
H 2.788792 0.710531 1.634321
H 4.154912 -0.469383 1.420629
H 2.500301 -1.048974 1.900882
H 2.743689 -1.994775 -1.608385
H 2.348766 -2.554428 0.063110
H 4.067972 -2.079544 -0.376649
H 3.099720 1.518097 -0.643356
H 3.015774 0.372017 -2.019698
H 4.457721 0.350267 -0.922022
C 0.531959 1.572778 0.240915
N 0.630681 2.734656 0.644776
C 0.697125 3.989232 -0.061055
H 1.568266 4.583203 0.288165
H -0.207799 4.598269 0.153837
H 0.776046 3.866032 -1.165694
O 0.419288 -2.108295 0.933918
H 0.262237 -1.847203 1.860759
