26

Ir -0.243768 -0.394438 -0.158537
H -0.373961 -0.879098 -1.796520
H -0.147555 0.055369 -1.928908
N 1.778981 -0.876730 -0.210495
C 3.674939 -2.076769 -0.378179
C 2.297229 -2.151039 -0.377068
N 3.971840 -0.739087 -0.210820
C 2.815471 -0.034643 -0.109848
H 4.902946 -0.324312 -0.163415
H 4.445018 -2.846574 -0.480164
H 1.641286 -3.020321 -0.478604
H 2.774529 1.055029 0.035696
N -2.238750 0.167916 -0.158477
C -4.090129 1.437010 -0.172081
C -2.711012 1.470205 -0.156291
N -4.438623 0.099594 -0.180733
C -3.299867 -0.643606 -0.173606
H -5.386475 -0.277364 -0.186079
H -4.834459 2.238545 -0.174779
H -2.005389 2.307446 -0.131383
H -3.262477 -1.737316 -0.170529
C -0.560456 -1.709853 1.110140
O -0.787258 -2.585929 1.863963
N 0.266661 1.716143 0.142261
C 1.102991 2.567863 0.273402
S 2.284936 3.672370 0.437461
