30

Ir 0.010727 0.029372 -0.087578
H 0.061401 -0.008644 -1.883505
H 0.059615 -0.893526 -1.745922
N -2.084677 0.042854 -0.161363
C -4.891756 0.146592 -0.323644
C -4.099397 1.120986 -0.947686
C -2.707969 1.042254 -0.839899
C -2.849090 -0.897593 0.453005
C -4.246442 -0.873438 0.388892
H -5.989895 0.186336 -0.387220
H -4.546333 1.950182 -1.514644
H -2.044350 1.791284 -1.293774
H -2.273231 -1.689670 0.967788
H -4.815064 -1.660763 0.905043
N 2.096980 0.076325 -0.100218
C 4.913675 0.161768 -0.312905
C 4.216612 -1.049266 -0.410605
C 2.822767 -1.060618 -0.296743
C 2.777193 1.252406 0.003064
C 4.168210 1.330023 -0.092568
H 6.009794 0.196951 -0.404174
H 4.740963 -2.002648 -0.571141
H 2.226539 -1.988936 -0.307418
H 2.164054 2.148823 0.165171
H 4.652655 2.312702 0.000821
C -0.079355 1.603507 0.882676
N -0.168129 2.673605 1.497266
H -0.222066 2.677927 2.526520
S 0.025619 -2.399731 0.690410
H -0.315904 -3.095147 -0.431904
