30

Ir -0.301700 -0.370003 -0.162466
H -0.411110 -0.826603 -1.799539
H -0.357108 0.157315 -1.890085
P 1.953880 -0.538849 -0.137549
C 5.056178 -0.815124 -0.109131
C 4.492795 0.469780 -0.211779
C 3.117229 0.737747 -0.236189
C 2.878846 -1.997047 -0.020221
C 4.280412 -1.984089 -0.016316
H 6.152477 -0.909195 -0.097805
H 5.174034 1.335008 -0.273688
H 2.757443 1.779163 -0.299701
H 2.329812 -2.948215 0.057956
H 4.801939 -2.952477 0.064745
N -2.449953 -0.128864 -0.119897
C -5.234743 0.183955 -0.089421
C -4.389386 1.227483 0.312298
C -3.003521 1.038860 0.285907
C -3.261508 -1.143227 -0.506379
C -4.654286 -1.023160 -0.505892
H -6.328253 0.307358 -0.076951
H -4.790433 2.193851 0.650144
H -2.279637 1.817442 0.577868
H -2.759485 -2.069948 -0.819586
H -5.268248 -1.875710 -0.829561
C -0.426110 -1.855427 0.972390
O -0.511182 -2.826543 1.623095
N -0.148180 1.736859 0.266686
C 0.482717 2.762818 0.269194
S 1.321620 4.144123 0.276891
