28

Ir -0.000004 -0.325778 0.258678
H -0.000015 -0.533756 1.960560
H -0.000005 0.431778 1.895304
P -2.309639 -0.234464 0.145498
C -5.422638 -0.122573 0.009010
C -4.795503 -1.379441 -0.054865
C -3.407330 -1.566461 0.004290
C -3.313836 1.173831 0.201690
C -4.709587 1.084587 0.132198
H -6.521085 -0.080733 -0.043077
H -5.430928 -2.275156 -0.155834
H -2.980724 -2.580284 -0.049626
H -2.795519 2.143439 0.267935
H -5.282774 2.026161 0.170884
P 2.309626 -0.234475 0.145504
C 5.422624 -0.122591 0.009016
C 4.709587 1.084555 0.132410
C 3.313836 1.173801 0.201924
C 3.407302 -1.566460 0.004067
C 4.795477 -1.379443 -0.055066
H 6.521072 -0.080753 -0.043071
H 5.282782 2.026117 0.171248
H 2.795532 2.143405 0.268322
H 2.980686 -2.580269 -0.050017
H 5.430892 -2.275147 -0.156191
C 0.000001 -1.920275 -0.726135
O 0.000003 -2.949672 -1.282707
Br 0.000027 2.245555 -0.497408
