49

Ir 0.075776 -0.155020 -0.237822
H -0.031211 -1.059345 -1.835525
H 0.049889 -1.788077 -1.403672
P -2.279438 -0.090455 -0.071145
C -2.860664 1.007231 1.314304
C -3.152643 -1.687897 0.296163
C -2.873036 -2.819834 -0.693437
C -3.241188 0.554863 -1.530019
C -2.709226 1.860192 -2.123642
C -2.127486 0.768340 2.636451
H -2.696240 2.048773 0.964081
H -3.959466 0.870833 1.419244
H -2.790626 -1.986123 1.301465
H -4.237595 -1.452901 0.367229
H -3.204057 -0.255036 -2.289798
H -4.305029 0.648621 -1.218074
H -1.810093 -3.122855 -0.619336
H -3.494354 -3.706023 -0.450020
H -3.096124 -2.539304 -1.743888
H -2.734153 2.693284 -1.392285
H -1.653890 1.746291 -2.441223
H -3.312094 2.167999 -3.002525
H -2.230427 -0.277685 2.987653
H -1.041850 0.953405 2.509555
H -2.515092 1.439642 3.430097
C 2.130513 -0.185972 -0.162516
C 4.302807 -0.054762 0.706397
C 4.382782 -0.360195 -0.795204
H 4.636238 0.983656 0.943755
H 4.705583 -1.409431 -0.994747
C 2.625960 -0.266374 -2.608311
H 2.610791 -1.321586 -2.966612
H 1.617789 0.169941 -2.740274
H 3.351839 0.302130 -3.225702
C 2.350937 -0.016578 2.315058
H 2.228937 1.062480 2.563592
H 1.378151 -0.541664 2.396301
H 3.058583 -0.469709 3.038190
N 2.868859 -0.198959 0.974101
N 2.992288 -0.166871 -1.215901
H 5.067895 0.316073 -1.346882
H 4.900032 -0.752471 1.328207
C 0.128631 1.683900 -0.162601
N 0.161638 2.910145 -0.126990
C 0.191594 3.868105 0.944915
H -0.725504 4.495803 0.925939
H 1.051585 4.560099 0.821266
H 0.265039 3.392662 1.949750
Cl 0.012876 -2.223086 1.285874
