27

Ir 0.000392 0.031646 -0.157948
H 0.006446 0.212475 -1.866712
H -0.004150 -0.805923 -1.736330
N -2.073880 0.048774 -0.169095
C -4.210124 0.726348 -0.346560
C -2.894002 1.140638 -0.393486
N -4.163877 -0.631554 -0.090562
C -2.863004 -1.013609 0.014816
H -4.965113 -1.254441 0.008653
H -5.150079 1.271494 -0.471599
H -2.470928 2.135101 -0.563060
H -2.489961 -2.021427 0.237739
N 2.073602 -0.010104 -0.167770
C 4.203409 -0.723344 -0.127142
C 2.885652 -1.124840 -0.042410
N 4.170976 0.648164 -0.301075
C 2.871154 1.050121 -0.323193
H 4.977690 1.264218 -0.397569
H 5.139435 -1.287099 -0.076696
H 2.439021 -2.112587 0.116674
H 2.529087 2.083894 -0.433503
C 0.033621 1.617058 0.854884
N 0.082761 2.684573 1.485163
H 0.077195 2.646469 2.516998
C -0.044158 -1.910233 0.598483
C -0.088647 -3.048801 1.094081
H -0.109323 -4.027945 1.553913
