51

Ir 1.248227 -0.100443 0.134565
H 1.263109 -0.474142 1.854996
H 1.271042 0.484790 1.853322
P -1.045007 -0.011574 0.040655
C -1.347594 -2.678366 0.872701
C -1.893134 -1.653712 0.070791
C -1.740462 0.830220 -1.443078
C -1.030719 0.774602 -2.658603
C -1.568964 1.364592 -3.811174
C -2.809352 2.020948 -3.756293
C -3.513523 2.088724 -2.543311
C -2.982931 1.496015 -1.387011
C -1.794765 0.905146 1.456444
C -1.405108 2.247749 1.663443
C -1.956405 2.976083 2.726702
C -2.887706 2.376913 3.592670
C -3.272234 1.043065 3.389552
C -2.731101 0.306352 2.322487
C -3.077692 -1.897847 -0.653588
C -3.708419 -3.149387 -0.570724
C -3.167567 -4.162299 0.236823
C -1.986524 -3.923848 0.958796
H -0.406235 -2.494123 1.413761
H -0.043782 0.287796 -2.683747
H -1.006173 1.323991 -4.756130
H -3.224074 2.492601 -4.660521
H -4.479893 2.613549 -2.492637
H -3.532207 1.561210 -0.435206
H -0.667476 2.718764 0.993810
H -1.650701 4.022335 2.880510
H -3.314093 2.952608 4.428730
H -4.001113 0.567556 4.063858
H -3.041242 -0.737479 2.165726
H -3.506645 -1.111432 -1.292017
H -4.628157 -3.333505 -1.146952
H -3.663480 -5.143326 0.297669
H -1.552395 -4.716889 1.586835
N 3.394565 -0.014968 0.183540
C 5.683398 -0.581241 0.416747
O 5.477450 0.814580 0.035372
C 4.159888 0.997822 -0.066163
C 4.253598 -1.162399 0.525856
H 3.996777 -1.524520 1.541966
H 4.056362 -1.993363 -0.181646
H 6.246756 -0.588963 1.370732
H 6.302321 -1.056133 -0.370078
H 3.788428 1.994982 -0.355044
C 1.305550 -1.634248 -0.963531
O 1.364592 -2.554259 -1.691384
C 1.294867 1.895946 -0.394574
N 1.416805 3.028383 -0.713672
