36

Ir -0.143628 0.314339 -0.234301
H -0.170644 0.611787 -1.903038
H -0.190751 -0.404061 -1.874117
N -2.277911 0.250121 -0.247470
C -4.448774 -0.644851 -0.521329
O -4.370393 0.313659 0.582786
C -3.086954 0.675713 0.664004
C -3.064997 -0.560878 -1.196179
H -3.076814 -0.051344 -2.183344
H -2.581047 -1.550508 -1.293474
H -5.298589 -0.350533 -1.166376
H -4.646201 -1.640716 -0.075557
H -2.795210 1.323985 1.503972
C 1.848882 0.139404 -0.078632
C 4.133561 -0.066016 -0.591949
C 3.868277 -0.634953 0.805957
H 4.656469 -0.781477 -1.260006
H 4.570525 -0.257396 1.577397
C 1.893712 -0.579409 2.327891
H 2.503311 -0.182942 3.166276
H 0.875679 -0.155451 2.386419
H 1.820116 -1.685500 2.406679
C 2.595235 0.726534 -2.407861
H 2.603140 -0.085482 -3.168309
H 1.632787 1.265613 -2.469266
H 3.413573 1.438418 -2.651574
N 2.779178 0.215362 -1.070995
N 2.498260 -0.195874 1.069958
H 3.903052 -1.749091 0.817689
H 4.732885 0.875045 -0.567305
C -0.152492 1.789115 0.914101
N -0.228184 2.662456 1.786200
H -0.211240 3.659318 1.527348
N -0.265117 -1.872029 0.257829
O 0.775831 -2.546633 0.333417
O -1.373436 -2.388523 0.484180
