32

Ir -0.337464 0.075457 -0.247623
H -0.405265 0.300220 -1.948325
H -0.387901 -0.699609 -1.849405
P -2.664573 -0.062773 -0.028084
C -3.198150 -0.383224 1.697625
C -3.413457 -1.434126 -0.989583
C -3.595701 1.437259 -0.536878
H -2.699726 -1.313781 2.033264
H -4.299854 -0.486766 1.767689
H -2.855121 0.451594 2.338430
H -2.928349 -2.375488 -0.664652
H -3.205822 -1.280798 -2.066243
H -4.507948 -1.487060 -0.821875
H -3.218114 2.303650 0.040247
H -4.684238 1.313630 -0.366674
H -3.404407 1.630870 -1.610160
P 1.973411 0.006048 -0.128461
C 5.090504 -0.138015 0.100507
C 4.347272 -1.322426 0.263436
C 2.950853 -1.391192 0.188242
C 3.111122 1.305518 -0.282677
C 4.493530 1.109032 -0.156478
H 6.186921 -0.189696 0.180652
H 4.896264 -2.256976 0.468631
H 2.416994 -2.342636 0.342326
H 2.707650 2.310156 -0.484921
H 5.151185 1.987742 -0.267673
C -0.367400 1.772149 0.612293
N -0.408008 2.896790 1.099782
H -0.392320 3.093093 2.107701
C -0.385807 -1.868350 0.463803
N -0.479756 -2.959251 0.907983
