43

Ir -0.061922 -0.183550 -0.201517
H -0.107285 -1.332821 -1.579401
H -0.016042 -1.970690 -0.985095
C -2.129214 -0.042381 -0.167670
C -4.263715 0.721365 0.174864
C -4.355802 -0.574443 -0.251085
H -5.038831 1.442546 0.450013
H -5.227984 -1.214309 -0.414330
C -2.734497 -2.393970 -0.816319
H -2.256178 -2.434234 -1.814534
H -2.038806 -2.800273 -0.049577
H -3.667892 -2.986061 -0.836353
C -2.412674 2.314361 0.683156
H -1.474814 2.154868 1.247178
H -2.196679 2.987090 -0.170343
H -3.172561 2.782552 1.337532
N -2.910126 1.027027 0.227537
N -3.058911 -1.022878 -0.452550
C 2.002066 -0.320581 -0.012708
C 4.158278 -0.081090 0.885418
C 4.265808 -0.729778 -0.499047
H 4.528555 0.972323 0.885891
H 4.539997 -1.810078 -0.437658
C 2.583919 -0.944862 -2.365044
H 2.514235 -2.049221 -2.500743
H 1.614609 -0.489596 -2.641976
H 3.371604 -0.560206 -3.045638
C 2.174602 0.423485 2.360301
H 2.077559 1.532796 2.321606
H 1.182425 -0.043270 2.537309
H 2.852647 0.152811 3.194896
N 2.712891 -0.108823 1.125752
N 2.900328 -0.576462 -1.006430
H 5.001257 -0.231690 -1.164150
H 4.709213 -0.633356 1.673970
C 0.224163 1.591128 -0.656609
N 0.521098 2.737940 -0.988553
C 0.734267 3.945754 -0.239926
H -0.075210 4.681724 -0.443905
H 1.684394 4.431521 -0.548781
H 0.775728 3.775206 0.861686
S -0.382449 -1.811460 1.768532
H -1.332890 -1.092529 2.430397
