40

Ir 0.141829 0.054152 -0.148312
H 0.233807 0.299478 -1.925776
H 0.237996 -0.611668 -1.901323
P -2.154727 -0.014171 -0.086579
C -2.878632 0.346458 1.581372
C -2.931638 -1.631902 -0.550958
C -2.510616 -2.194190 -1.908785
C -3.015104 1.192873 -1.207241
C -2.589606 2.653100 -1.049566
C -2.316395 -0.516781 2.712817
H -2.671965 1.420508 1.774218
H -3.981659 0.239106 1.485962
H -2.642947 -2.338954 0.253230
H -4.031159 -1.474784 -0.492485
H -2.807555 0.837383 -2.239077
H -4.106917 1.064304 -1.037905
H -1.425154 -2.414167 -1.916282
H -3.046271 -3.143517 -2.111093
H -2.734896 -1.501318 -2.745871
H -2.778699 3.036554 -0.026469
H -1.506962 2.772637 -1.252040
H -3.148665 3.299671 -1.755860
H -2.500870 -1.596793 2.547754
H -1.219602 -0.385858 2.795378
H -2.780561 -0.234687 3.679340
N 2.327412 -0.001834 -0.114363
C 5.138333 -0.021968 -0.130082
C 4.411913 -1.139173 0.304308
C 3.013042 -1.095664 0.300976
C 3.028640 1.080561 -0.532942
C 4.426570 1.108853 -0.555663
H 6.238847 -0.030592 -0.135409
H 4.915785 -2.052869 0.651033
H 2.398514 -1.947939 0.630740
H 2.426977 1.942617 -0.855756
H 4.941310 2.015675 -0.904314
C 0.122506 1.667850 0.812448
O 0.092639 2.621819 1.500436
C 0.090464 -1.923206 0.430143
N 0.060121 -3.039212 0.822404
