31

Ir 0.131647 0.347447 0.539059
H 0.316338 0.669029 2.459818
H 1.129028 0.608376 2.285699
As 2.267478 -0.373233 -0.458079
C 1.855053 -1.851705 -1.667019
C 3.461373 -1.252800 0.819697
C 3.470118 0.773033 -1.503479
H 1.155392 -2.483749 -1.086849
H 2.762337 -2.416545 -1.957672
H 1.337895 -1.456669 -2.561479
H 2.809267 -1.935861 1.397335
H 3.897434 -0.496260 1.499692
H 4.265464 -1.817980 0.308908
H 2.898003 1.223366 -2.337214
H 4.317583 0.185840 -1.908425
H 3.854342 1.583350 -0.854622
P -2.041901 0.012422 0.076838
C -4.947436 -0.822148 -0.751302
C -4.074581 -1.811693 -0.254165
C -2.758853 -1.570838 0.149882
C -3.302119 1.029610 -0.553796
C -4.567128 0.524846 -0.887664
H -5.967370 -1.114815 -1.042727
H -4.453673 -2.845584 -0.178165
H -2.102614 -2.370008 0.527385
H -3.080702 2.100561 -0.683905
H -5.313479 1.236145 -1.281581
C 0.095427 2.104037 -0.026347
N 0.041798 3.287044 -0.311806
H 0.145346 3.793294 -1.189572
F 0.223404 -1.647655 1.031963
