76

Ir 0.010663 -0.024575 0.364504
H -0.026450 0.309978 2.226831
H -0.035285 1.142597 2.143596
P -2.316291 0.010990 0.140623
C -2.748614 -2.451946 1.402810
C -3.152372 -1.627193 0.331843
C -2.859193 0.565471 -1.536829
C -2.063398 0.199952 -2.644310
C -2.450992 0.567100 -3.940704
C -3.627038 1.309868 -4.142305
C -4.415669 1.683356 -3.042318
C -4.036412 1.312244 -1.741573
C -3.262811 1.092440 1.305603
C -2.780945 2.396569 1.553875
C -3.483314 3.247006 2.420219
C -4.659346 2.807582 3.051347
C -5.136813 1.509947 2.809582
C -4.444424 0.652696 1.938621
C -4.178148 -2.064222 -0.529629
C -4.793863 -3.309015 -0.317631
C -4.396048 -4.120439 0.756260
C -3.372791 -3.688324 1.617021
H -1.924161 -2.122348 2.054418
H -1.123882 -0.349849 -2.468937
H -1.821191 0.282461 -4.797791
H -3.924706 1.607036 -5.159777
H -5.332347 2.273722 -3.194898
H -4.653805 1.612017 -0.880863
H -1.854805 2.736318 1.050563
H -3.102518 4.263399 2.605979
H -5.203898 3.477011 3.735394
H -6.056008 1.157155 3.302476
H -4.825725 -0.362866 1.755148
H -4.496776 -1.432225 -1.372091
H -5.590323 -3.645298 -0.999392
H -4.879446 -5.096086 0.919438
H -3.048733 -4.324988 2.454496
P 2.345875 -0.010446 0.102700
C 2.707482 -2.106087 1.971340
C 3.349578 -1.170367 1.137221
C 3.228293 1.586656 0.373048
C 2.969731 2.282181 1.572351
C 3.643304 3.478029 1.853919
C 4.578999 3.992814 0.940851
C 4.839282 3.303829 -0.253449
C 4.168460 2.103523 -0.539270
C 2.719392 -0.490676 -1.638975
C 2.215659 0.337104 -2.669342
C 2.376582 -0.039769 -4.009294
C 3.022211 -1.246423 -4.336442
C 3.509673 -2.074585 -3.314289
C 3.362795 -1.699974 -1.967036
C 4.760872 -1.114146 1.113894
C 5.515157 -1.992899 1.903981
C 4.869282 -2.930155 2.729129
C 3.467470 -2.983162 2.762480
H 1.607359 -2.137702 1.994129
H 2.228634 1.887641 2.284534
H 3.430120 4.016169 2.790234
H 5.102617 4.936127 1.159684
H 5.568273 3.704034 -0.974968
H 4.371690 1.573718 -1.481874
H 1.676604 1.262079 -2.396483
H 1.986222 0.612128 -4.806547
H 3.142394 -1.541449 -5.390456
H 4.011424 -3.022775 -3.562712
H 3.743131 -2.357141 -1.170902
H 5.271558 -0.373181 0.479213
H 6.614711 -1.941999 1.880180
H 5.463220 -3.617051 3.351849
H 2.956702 -3.711603 3.410846
C 0.066549 -1.812195 -0.108904
N 0.152018 -2.988907 -0.453045
H 0.216718 -3.294174 -1.430961
S 0.121937 2.373221 -0.468043
H -0.822730 2.271334 -1.445578
