36

Ir 0.154165 -0.140607 0.212055
H 0.238904 -1.575356 1.211443
H 0.266529 -1.959303 0.334748
N 2.310193 -0.117490 0.236545
C 4.550475 -0.634710 -0.345296
O 4.425870 0.660205 0.322255
C 3.117763 0.836885 0.552892
C 3.118640 -1.214158 -0.329503
H 3.009211 -2.112879 0.313025
H 2.715975 -1.456860 -1.334287
H 5.292672 -1.235218 0.216356
H 4.938292 -0.445506 -1.367150
H 2.808436 1.796732 0.992269
C -1.837895 -0.107391 0.044762
C -4.102357 -0.705993 0.150124
C -3.971215 0.636791 -0.574964
H -4.349923 -1.537662 -0.552597
H -4.334365 1.488759 0.048884
C -1.969666 1.826742 -1.547186
H -1.853120 2.746291 -0.932522
H -0.979429 1.526644 -1.938100
H -2.645066 2.039206 -2.400280
C -2.473531 -2.010227 1.553237
H -2.294887 -2.948545 0.978999
H -1.573535 -1.794028 2.159831
H -3.332582 -2.174761 2.234843
N -2.757555 -0.882918 0.699273
N -2.526325 0.731531 -0.776912
H -4.514857 0.667542 -1.541088
H -4.867302 -0.699598 0.953536
C 0.084204 1.571274 0.971395
N 0.059155 2.783498 1.237858
H 0.024896 3.065282 2.229739
C 0.330573 -0.562912 -1.810865
C 0.482119 -0.731951 -3.030434
H 0.599528 -0.874055 -4.096282
