35

Ir 0.304030 -0.349572 -0.235808
H 0.489162 -0.716835 -1.915238
H 0.140497 0.141857 -2.031134
P 2.417309 0.652589 -0.056982
C 2.618784 1.507951 1.555900
C 2.696826 1.983874 -1.291807
C 3.888677 -0.440491 -0.192385
H 1.759201 2.196857 1.672495
H 3.573361 2.069470 1.610663
H 2.575660 0.756266 2.367507
H 1.842717 2.685522 -1.216177
H 2.701776 1.544663 -2.308373
H 3.650348 2.519530 -1.110336
H 3.793489 -1.255065 0.552126
H 4.831596 0.118077 -0.024299
H 3.902306 -0.900321 -1.199716
P -1.916843 -1.132995 -0.173736
C -3.039046 -0.377291 -1.417632
C -2.761844 -0.785959 1.420522
C -2.115519 -2.946105 -0.412661
H -3.116797 0.710067 -1.212001
H -4.048554 -0.832317 -1.359373
H -2.620721 -0.525998 -2.431818
H -2.821686 0.313317 1.557645
H -2.169407 -1.222824 2.246975
H -3.786007 -1.211318 1.424916
H -1.742434 -3.217890 -1.419323
H -3.175422 -3.255401 -0.311005
H -1.492474 -3.474125 0.335454
C 0.825829 -1.737895 0.878822
N 1.195644 -2.733449 1.507577
H 1.176542 -2.764101 2.534586
N -0.499491 1.654446 0.010091
C -1.478651 2.313764 0.237542
S -2.816490 3.180604 0.535059
