44

Ir 0.148616 -0.177412 -0.183212
H 0.188323 -0.679966 -1.803134
H 0.232717 -1.571276 -1.371015
P -2.118877 -0.304997 -0.023645
C -2.844513 0.698542 1.360407
C -2.701082 -2.026866 0.339338
C -2.613121 -2.998886 -0.838029
C -3.105725 0.229744 -1.502764
C -2.911833 1.690780 -1.914037
C -2.216848 0.417813 2.726843
H -2.685869 1.759947 1.075521
H -3.942398 0.520045 1.367628
H -1.994080 -2.349911 1.134855
H -3.733035 -1.965149 0.748141
H -2.780918 -0.447152 -2.320925
H -4.174447 -0.001908 -1.296475
H -1.582185 -3.029336 -1.245168
H -2.868554 -4.026099 -0.507075
H -3.305506 -2.735832 -1.664143
H -3.286239 2.392855 -1.141507
H -1.840427 1.920569 -2.077931
H -3.463054 1.908155 -2.851545
H -2.358194 -0.636330 3.040166
H -1.126309 0.620634 2.695433
H -2.666465 1.064142 3.508158
N 2.315085 -0.208600 -0.121917
C 5.108173 -0.413638 -0.073844
C 4.304422 -1.386581 0.539787
C 2.911927 -1.255968 0.498476
C 3.082213 0.738516 -0.710216
C 4.479790 0.669863 -0.706333
H 6.205870 -0.497095 -0.060443
H 4.748076 -2.253395 1.051752
H 2.178864 -1.950861 0.967236
H 2.538426 1.567077 -1.188301
H 5.061052 1.462973 -1.198789
C 0.104322 1.685932 -0.078433
N 0.093134 2.916503 -0.100715
C 0.058007 3.908908 0.940784
H -0.850651 4.540520 0.837618
H 0.929391 4.592207 0.852718
H 0.062972 3.465765 1.963071
O 0.234438 -1.842946 1.238463
H 0.184925 -1.395629 2.105016
