33

Ir -0.376050 0.102622 0.205213
H -0.419037 -0.172217 1.973558
H -0.428844 -1.032081 1.793434
As 1.991222 0.020303 0.063806
C 2.606463 -0.331726 -1.755359
C 2.798594 -1.434366 1.086315
C 3.004097 1.606757 0.598589
H 2.066401 -1.239808 -2.086202
H 3.703060 -0.482646 -1.787823
H 2.315979 0.520998 -2.397518
H 2.293830 -2.360137 0.748781
H 2.594672 -1.275943 2.162363
H 3.890101 -1.488218 0.907846
H 2.603654 2.476069 0.043039
H 4.083660 1.477735 0.388009
H 2.846337 1.779378 1.680136
N -2.618239 -0.023684 0.070907
C -2.948583 -0.177684 -1.369444
C -3.110260 -1.216912 0.804712
C -3.267687 1.191406 0.615188
H -2.573321 -2.109702 0.430650
H -4.207609 -1.333739 0.655646
H -2.904019 -1.095336 1.884200
H -2.909443 2.084184 0.071451
H -2.998367 1.305669 1.681315
H -4.375467 1.115035 0.518995
H -2.420107 -1.069634 -1.757011
H -2.599341 0.713668 -1.921370
H -4.049310 -0.291339 -1.503097
C -0.364189 1.819674 -0.433089
N -0.362634 3.010692 -0.775195
H -0.333520 3.268282 -1.770878
Cl -0.257543 -2.294945 -0.704351
