53

Ir 1.369710 -0.158891 0.210030
H 1.323366 -0.062259 2.007118
H 1.372726 0.807006 1.903799
P -0.902400 -0.006328 0.031428
C -1.383003 -2.575135 1.050842
C -1.808504 -1.614306 0.109018
C -1.488093 0.764488 -1.535238
C -0.742791 0.555545 -2.713022
C -1.196564 1.080622 -3.930882
C -2.386503 1.825991 -3.979973
C -3.124347 2.046104 -2.806007
C -2.678737 1.517409 -1.583994
C -1.698036 1.002860 1.358985
C -1.206056 2.306461 1.594116
C -1.794068 3.103297 2.586732
C -2.864456 2.611868 3.353704
C -3.351633 1.316432 3.122113
C -2.773750 0.511398 2.126333
C -2.916559 -1.894505 -0.715281
C -3.591169 -3.120235 -0.594192
C -3.170572 -4.068833 0.350928
C -2.065711 -3.793346 1.174101
H -0.499838 -2.363095 1.674122
H 0.202184 -0.006362 -2.657468
H -0.608322 0.917893 -4.846890
H -2.735473 2.245200 -4.936357
H -4.051865 2.638292 -2.837959
H -3.255481 1.698232 -0.663965
H -0.361291 2.685526 0.991560
H -1.408117 4.119208 2.763388
H -3.319385 3.240532 4.134868
H -4.189511 0.924543 3.719212
H -3.163893 -0.501742 1.948762
H -3.250809 -1.156309 -1.459356
H -4.450504 -3.334675 -1.248007
H -3.700233 -5.029709 0.441560
H -1.725612 -4.537251 1.910760
N 3.635701 -0.141636 0.263966
C 4.104817 0.093879 -1.126501
C 4.120669 0.963009 1.130449
C 4.170843 -1.427690 0.769035
H 3.662749 1.909625 0.784684
H 5.231033 1.027303 1.082107
H 3.814972 0.771377 2.175726
H 3.847231 -2.255770 0.112713
H 3.781544 -1.615923 1.786586
H 5.284415 -1.398998 0.798357
H 3.662020 1.041287 -1.488663
H 3.762824 -0.733473 -1.774831
H 5.217168 0.151348 -1.152374
C 1.360931 -1.803760 -0.599371
O 1.379425 -2.854191 -1.133815
Cl 1.531815 2.268435 -0.555402
