63

Ir 0.797789 -0.417693 0.379777
H 0.632689 -0.387279 2.084889
H 0.883416 0.517641 1.952643
P -1.460922 0.216965 0.092742
C -2.474788 -2.157158 1.193069
C -2.707675 -1.137517 0.246717
C -1.788698 0.907317 -1.587351
C -1.273718 0.208741 -2.700679
C -1.509388 0.683644 -3.998130
C -2.247617 1.862882 -4.197234
C -2.756273 2.562373 -3.092434
C -2.531669 2.086710 -1.789814
C -2.069296 1.525185 1.240081
C -1.242253 2.654920 1.433039
C -1.656930 3.684257 2.290312
C -2.884997 3.592129 2.968186
C -3.703490 2.467130 2.782467
C -3.301330 1.435425 1.917791
C -3.874966 -1.178330 -0.542785
C -4.796631 -2.225888 -0.384530
C -4.562602 -3.236255 0.562518
C -3.401085 -3.198695 1.352491
H -1.546162 -2.133809 1.785438
H -0.685611 -0.708707 -2.544243
H -1.103645 0.133511 -4.861103
H -2.421339 2.239989 -5.216867
H -3.330662 3.489693 -3.241407
H -2.930401 2.641591 -0.927395
H -0.276122 2.716021 0.903993
H -1.010802 4.564177 2.432776
H -3.203698 4.399751 3.645315
H -4.664888 2.388680 3.313359
H -3.948669 0.557275 1.773135
H -4.058888 -0.391695 -1.290568
H -5.702926 -2.253481 -1.009030
H -5.285559 -4.057991 0.682251
H -3.210000 -3.991324 2.092504
C 2.828760 -0.778379 0.386104
C 5.065979 -0.664213 1.080444
C 5.023774 -0.760131 -0.451865
H 5.382079 0.348002 1.420324
H 5.477310 -1.699044 -0.844433
C 3.142087 -0.603120 -2.103223
H 3.516831 -1.455526 -2.710925
H 2.038748 -0.590253 -2.127498
H 3.523715 0.349606 -2.528445
C 3.286643 -0.896723 2.845821
H 3.221546 0.131571 3.269542
H 2.305636 -1.391650 2.963523
H 4.041483 -1.465864 3.426145
N 3.663702 -0.894136 1.452869
N 3.585082 -0.735622 -0.732573
H 5.513337 0.105093 -0.943995
H 5.732070 -1.416192 1.552575
C 0.447533 -2.026378 -0.504930
N 0.177542 -3.036058 -1.135351
C -0.320493 -4.353317 -0.863513
H -1.398499 -4.409161 -1.126441
H -0.214172 -4.634956 0.207731
H 0.211519 -5.104428 -1.482906
N 1.420126 1.590832 -0.342280
C 2.461611 2.158485 -0.544364
S 3.884730 2.891435 -0.825790
