44

Ir 0.000051 -0.119100 -0.282719
H -0.000626 0.700279 -1.714436
H 0.000142 -0.265652 -2.080585
C -2.078881 -0.145159 -0.232176
C -4.312418 0.492057 -0.594973
C -4.281239 -0.749253 0.301612
H -4.946514 1.310977 -0.196202
H -4.942736 -1.567083 -0.050912
C -2.410122 -2.300243 0.975970
H -3.082379 -3.157544 0.765023
H -1.382889 -2.535776 0.612434
H -2.420946 -2.105279 2.073317
C -2.498389 2.062565 -1.339961
H -3.181617 2.898624 -1.083770
H -1.469739 2.334800 -1.042817
H -2.525450 1.915272 -2.445341
N -2.899282 0.875930 -0.622288
N -2.871212 -1.140836 0.238278
H -4.564197 -0.515599 1.356258
H -4.670872 0.257498 -1.626210
C 2.078751 -0.144921 -0.232073
C 4.312577 0.489305 -0.597393
C 4.280546 -0.747903 0.304818
H 4.670546 0.249691 -1.627636
H 4.563092 -0.509450 1.358510
C 2.408099 -2.294965 0.985150
H 2.417014 -2.094763 2.081563
H 1.381618 -2.532199 0.620737
H 3.080662 -3.153266 0.779371
C 2.499316 2.058192 -1.348274
H 2.525621 1.906517 -2.453075
H 1.470971 2.332220 -1.051658
H 3.183192 2.894824 -1.095741
N 2.899734 0.874164 -0.626082
N 2.870387 -1.139146 0.242570
H 4.941916 -1.567564 -0.043645
H 4.947461 1.309485 -0.202506
C -0.000049 1.151964 1.080139
N -0.000092 2.149864 1.798171
C -0.000077 2.328985 3.224629
H -0.890994 2.913629 3.540181
H 0.890020 2.914963 3.540009
H 0.000684 1.365681 3.784197
F 0.001855 -2.297016 -0.489672
