43

Ir 0.414742 0.022581 -0.199163
H 0.451094 -0.253341 -2.080608
H 0.520583 -1.086788 -2.019035
P -1.854448 -0.024666 -0.004849
C -2.465020 0.627908 1.620437
C -2.649930 -1.697813 -0.113351
C -2.338779 -2.489235 -1.384074
C -2.819954 0.954246 -1.259058
C -2.404785 2.416809 -1.419121
C -1.808396 -0.031516 2.835405
H -2.242076 1.715436 1.610469
H -3.571289 0.514098 1.630311
H -2.284550 -2.255581 0.773024
H -3.742863 -1.534006 0.012224
H -2.694320 0.410400 -2.219408
H -3.892790 0.863674 -0.979329
H -1.255919 -2.712939 -1.444933
H -2.878693 -3.457548 -1.373763
H -2.640006 -1.951334 -2.306574
H -2.517129 2.986603 -0.474363
H -1.342901 2.490202 -1.726991
H -3.027558 2.918051 -2.187832
H -2.001328 -1.122154 2.876853
H -0.709387 0.104931 2.800590
H -2.190889 0.417384 3.774238
N 2.699430 -0.007262 -0.146714
C 3.263685 1.176704 -0.834001
C 3.096139 0.008961 1.285183
C 3.234754 -1.235127 -0.785583
H 2.696131 0.919321 1.767912
H 4.207097 -0.004694 1.377571
H 2.668232 -0.877821 1.787426
H 2.947207 -1.251513 -1.853415
H 2.807944 -2.124881 -0.288328
H 4.345884 -1.254466 -0.709609
H 2.900401 2.098638 -0.345854
H 2.933864 1.184753 -1.889584
H 4.377610 1.155337 -0.796736
C 0.405525 1.799743 0.358826
N 0.421954 2.826462 1.050418
H 0.428861 3.754139 0.604898
C 0.477798 -1.890789 0.549029
N 0.541786 -2.941203 1.091578
