30

Ir 0.168885 0.130826 -0.108479
H 0.179652 1.173561 -1.434427
H 0.197404 0.325232 -1.941125
C -1.827680 -0.056559 -0.105071
C -4.061390 0.251511 -0.424093
C -3.892868 -0.944801 0.222428
H -4.966517 0.760598 -0.768064
H -4.624665 -1.683833 0.561779
C -1.912656 -2.242871 1.105435
H -2.599005 -3.109117 1.058542
H -0.950303 -2.465221 0.585364
H -1.724939 -1.975098 2.165287
C -2.514142 2.040608 -1.283161
H -3.447674 2.629036 -1.354491
H -1.754508 2.606023 -0.711337
H -2.114871 1.858690 -2.302039
N -2.792296 0.784867 -0.608022
N -2.530973 -1.116399 0.409498
N 2.305883 0.028521 -0.154019
C 4.323831 -0.922916 -0.376640
C 2.964554 -1.152357 -0.446469
N 4.469205 0.411404 -0.036631
C 3.227479 0.957718 0.090524
H 5.349957 0.906738 0.101418
H 5.183428 -1.580862 -0.535487
H 2.347232 -2.036906 -0.663803
H 3.028170 1.998961 0.364629
C 0.135684 1.052530 1.491461
O 0.123312 1.711065 2.470792
F 0.342930 -1.980647 -0.606883
