53

Ir -1.178300 -0.071360 0.445836
H -1.050863 -0.622637 2.054248
H -1.143629 -1.478415 1.631254
P 1.065408 -0.158639 0.055940
C 1.632392 1.737813 2.050519
C 2.174284 0.977080 0.995266
C 1.348614 0.237473 -1.735832
C 2.152152 1.303780 -2.187233
C 2.249464 1.582748 -3.561336
C 1.546534 0.804088 -4.492411
C 0.717922 -0.237585 -4.040771
C 0.603084 -0.517360 -2.671782
C 1.771692 -1.854642 0.321697
C 0.995483 -2.950171 -0.124466
C 1.477239 -4.257129 0.044133
C 2.712254 -4.491665 0.670292
C 3.465332 -3.406912 1.144292
C 2.999310 -2.093099 0.973677
C 3.553374 1.092939 0.700837
C 4.368766 1.953917 1.450591
C 3.819444 2.707866 2.501313
C 2.452527 2.597511 2.798479
H 0.556811 1.648252 2.269460
H 2.692104 1.940261 -1.472294
H 2.879618 2.419521 -3.901229
H 1.629197 1.020762 -5.568943
H 0.134175 -0.830357 -4.762320
H -0.127848 -1.263586 -2.307725
H -0.003997 -2.762569 -0.567198
H 0.868014 -5.103950 -0.308968
H 3.081450 -5.520662 0.803332
H 4.423557 -3.579223 1.658749
H 3.595201 -1.260459 1.372143
H 3.995889 0.508879 -0.120355
H 5.440390 2.035719 1.211716
H 4.460805 3.383710 3.088063
H 2.015685 3.187617 3.618730
N -3.311716 -0.104832 0.538764
C -5.496258 0.257256 0.898910
C -4.220128 0.692311 1.203989
N -5.326473 -0.812968 0.037861
C -3.996912 -1.008691 -0.164111
H -6.070590 -1.369567 -0.382788
H -6.482995 0.609379 1.213834
H -3.893906 1.518046 1.843999
H -3.484671 -1.755509 -0.794846
C -1.120689 1.751913 0.072990
N -1.021905 2.962403 -0.065941
C -0.954233 3.860368 -1.185300
H -1.047216 3.335798 -2.161979
H 0.015077 4.402709 -1.174051
H -1.753798 4.627611 -1.113819
F -1.541075 -1.774238 -0.983864
