35

Ir -0.280102 -0.234211 -0.169962
H -0.173473 -0.750754 -1.776654
H -0.104458 -1.647327 -1.315202
N -2.435267 -0.539904 -0.119420
C -2.925864 -0.161990 1.233362
C -3.140916 0.257507 -1.151445
C -2.711221 -1.991042 -0.321077
H -2.933869 1.331619 -0.993814
H -4.237777 0.070936 -1.099842
H -2.763533 -0.025136 -2.150939
H -2.094527 -2.546574 0.413441
H -2.411865 -2.279130 -1.345026
H -3.796337 -2.193894 -0.179898
H -2.727995 0.910006 1.410669
H -2.366505 -0.767272 1.969837
H -4.017769 -0.364710 1.317867
N 1.776288 -0.141191 -0.084926
C 4.585083 -0.216326 -0.014990
C 3.821891 -1.284582 0.480369
C 2.426632 -1.220940 0.435045
C 2.508873 0.901503 -0.555384
C 3.906500 0.896443 -0.534354
H 5.685008 -0.249393 0.002275
H 4.299288 -2.179588 0.905824
H 1.737077 -1.991825 0.836640
H 1.932338 1.746317 -0.957612
H 4.449557 1.765859 -0.932416
C -0.466673 1.618380 -0.058626
N -0.582958 2.846385 -0.093197
C -0.690844 3.836556 0.947258
H 0.134196 4.575800 0.861111
H -0.660625 3.399602 1.971866
H -1.637467 4.408360 0.838099
O -0.229048 -1.845270 1.309006
H -0.098259 -1.386543 2.160629
