32

Ir -0.051559 -0.213424 -0.234673
H -0.119269 -0.473240 -1.924995
H -0.064690 0.487006 -1.935639
P 2.220952 -0.390602 -0.161543
C 2.932558 0.005682 1.486255
C 3.121866 0.740098 -1.298513
C 2.904149 -2.055512 -0.547826
H 2.728004 1.070356 1.714540
H 4.027834 -0.166610 1.495424
H 2.441126 -0.629719 2.247711
H 2.932735 1.785918 -0.985062
H 2.750669 0.597756 -2.331608
H 4.211887 0.540988 -1.261079
H 2.473516 -2.783993 0.166249
H 4.010256 -2.066124 -0.472237
H 2.594573 -2.344594 -1.570776
N -2.172310 0.092019 -0.149739
C -4.523528 -0.164709 -0.046431
O -4.094232 1.218697 0.145865
C -2.759909 1.220691 0.073766
C -3.205535 -0.950007 -0.255403
H -3.135931 -1.443876 -1.246016
H -3.022620 -1.724068 0.517596
H -5.204457 -0.187799 -0.920378
H -5.088772 -0.469590 0.856724
H -2.205900 2.163800 0.215543
C -0.168319 -1.707360 0.862324
N -0.231862 -2.651517 1.657360
H -0.333835 -3.620286 1.324880
N 0.063195 1.939061 0.259615
C 0.979387 2.688334 0.524101
O 1.889667 3.435868 0.784359
