47

Ir 0.270796 -0.071319 -0.261682
H 0.276311 -0.723352 -1.997824
H 0.230536 -1.520399 -1.701632
P -2.090443 -0.125610 -0.120702
C -2.779191 0.898466 1.266001
C -2.905745 -1.774584 0.133383
C -2.504500 -2.857782 -0.868613
C -2.994779 0.522478 -1.612897
C -2.541387 1.892916 -2.117748
C -2.127782 0.628438 2.623781
H -2.622302 1.955050 0.961293
H -3.878230 0.729927 1.292259
H -2.618866 -2.085491 1.156801
H -4.002007 -1.587533 0.116976
H -2.847702 -0.245936 -2.401891
H -4.079102 0.517173 -1.363802
H -1.422761 -3.084255 -0.796975
H -3.053768 -3.797880 -0.658693
H -2.726851 -2.573368 -1.917981
H -2.669676 2.684579 -1.352337
H -1.467777 1.879640 -2.389532
H -3.127281 2.192352 -3.010605
H -2.268556 -0.419150 2.953016
H -1.033209 0.795335 2.565625
H -2.551064 1.298591 3.399752
P 2.617684 0.018918 -0.223387
C 3.365233 -0.281852 1.430687
C 3.366923 1.616926 -0.750458
C 3.436982 -1.222892 -1.304103
H 2.986251 0.478598 2.140139
H 4.472243 -0.235465 1.383608
H 3.040288 -1.285090 1.767127
H 2.996753 2.429690 -0.096649
H 3.045154 1.842210 -1.785561
H 4.473629 1.571879 -0.703190
H 3.060221 -2.212139 -0.978992
H 4.540832 -1.176070 -1.211504
H 3.140891 -1.043645 -2.356078
C 0.190827 1.780055 -0.070367
N 0.109021 2.984720 0.137879
C 0.051536 3.808172 1.315538
H 0.137269 3.218673 2.256167
H -0.905816 4.371182 1.342040
H 0.864512 4.564363 1.296319
N 0.429656 -1.931337 0.880685
O -0.384404 -2.159330 1.791981
O 1.400748 -2.701070 0.708241
