33

Ir -0.383492 0.008980 0.234205
H -0.410942 -0.225543 1.902177
H -0.401138 -1.181403 1.650148
As 1.972516 -0.091687 -0.001931
C 2.373134 -0.682726 -1.816750
C 2.848431 -1.439841 1.110839
C 3.058136 1.513198 0.259139
H 1.627149 -1.480536 -2.006816
H 3.413666 -1.047584 -1.914038
H 2.189788 0.161266 -2.508192
H 2.355009 -2.406940 0.896171
H 2.693064 -1.184098 2.176200
H 3.931276 -1.503597 0.886548
H 2.623011 2.321544 -0.359010
H 4.109910 1.329222 -0.034226
H 3.008862 1.811476 1.323745
N -2.582876 -0.213297 -0.030064
C -2.786788 -0.182279 -1.503175
C -2.970180 -1.554567 0.474716
C -3.376029 0.841657 0.632652
H -2.287900 -2.291083 0.007874
H -4.030729 -1.773730 0.214705
H -2.847715 -1.583344 1.573266
H -3.068654 1.830679 0.245961
H -3.186817 0.814685 1.721969
H -4.463977 0.691403 0.442609
H -2.106607 -0.939619 -1.939542
H -2.518608 0.818258 -1.888436
H -3.848397 -0.411723 -1.751485
C -0.403923 1.802312 -0.206532
N -0.425929 2.986749 -0.571301
H -0.460146 3.742320 0.127819
F -0.364367 -1.817567 -0.914809
