32

Ir -0.282004 -0.179452 -0.201720
H -0.340866 -0.473887 -1.881937
H -0.288343 0.490085 -1.916351
As 2.101553 -0.317095 -0.129914
C 2.883826 0.204886 1.583601
C 3.043358 0.862803 -1.371613
C 2.875075 -2.080162 -0.467741
H 2.677808 1.282142 1.737361
H 3.977293 0.028967 1.577612
H 2.405236 -0.383694 2.388196
H 2.845232 1.907306 -1.060934
H 2.655509 0.699513 -2.394583
H 4.132113 0.662777 -1.339376
H 2.413993 -2.798207 0.236940
H 3.974767 -2.062194 -0.338962
H 2.617353 -2.385956 -1.499473
N -2.386227 0.080827 -0.131089
C -4.729082 -0.239129 -0.090828
O -4.341903 1.151912 0.139583
C -3.006282 1.187467 0.115599
C -3.390540 -0.975138 -0.338968
H -3.289606 -1.379223 -1.367192
H -3.199745 -1.810905 0.363874
H -5.422635 -0.257986 -0.954187
H -5.270143 -0.589195 0.811403
H -2.480182 2.138141 0.304051
C -0.381628 -1.701220 0.855199
N -0.460630 -2.796546 1.425161
H -0.451132 -2.850926 2.452722
N -0.178688 1.977827 0.272543
C 0.735345 2.740402 0.504038
O 1.642504 3.501958 0.735219
