42

Ir -0.333215 -0.042840 -0.276251
H -0.413403 -0.241662 -1.986677
H -0.271275 -1.154286 -1.716812
N -2.601056 -0.305311 -0.274851
C -3.056644 -0.321978 1.139314
C -3.251545 0.811475 -0.995424
C -2.981650 -1.587369 -0.917214
H -2.985470 1.770396 -0.515060
H -4.359959 0.688603 -0.985647
H -2.894326 0.837701 -2.041655
H -2.466861 -2.409546 -0.387136
H -2.674105 -1.573950 -1.979556
H -4.084674 -1.735629 -0.862358
H -2.784231 0.633438 1.624107
H -2.545778 -1.158850 1.651237
H -4.161369 -0.462668 1.188845
C 1.649821 0.132436 -0.162559
C 3.930862 0.214413 -0.720328
C 3.777282 -0.082562 0.775520
H 4.565273 -0.528481 -1.246778
H 4.411643 0.559335 1.420816
C 1.829185 -0.045883 2.333487
H 2.375652 0.596741 3.054511
H 0.757214 0.220258 2.348038
H 1.934656 -1.112066 2.630478
C 2.260361 0.334431 -2.591859
H 2.371890 -0.613381 -3.163692
H 1.227399 0.708318 -2.713614
H 2.959493 1.083936 -3.021609
N 2.545185 0.156768 -1.188269
N 2.354740 0.170402 1.002417
H 4.001328 -1.148280 1.013799
H 4.358613 1.226299 -0.916762
C -0.530908 1.644069 0.504985
N -0.669071 2.678293 1.153860
C -0.858803 4.056625 0.784999
H -0.883475 4.212744 -0.317728
H -0.042966 4.679844 1.208652
H -1.807500 4.440524 1.216693
N -0.026168 -2.059235 0.668585
O 1.125673 -2.525163 0.721958
O -0.971098 -2.679962 1.194476
