37

Ir 0.000018 -0.152389 -0.292972
H 0.000032 -0.701393 -2.074669
H 0.000060 -1.506824 -1.789671
P -2.326039 -0.226606 -0.038867
C -2.847531 -0.187808 1.724608
C -3.107338 -1.768995 -0.670043
C -3.309866 1.120285 -0.821235
H -2.333297 -1.021591 2.241960
H -3.947245 -0.286993 1.830381
H -2.507768 0.764180 2.175941
H -2.617879 -2.624390 -0.164006
H -2.924435 -1.851985 -1.759168
H -4.198351 -1.783390 -0.472441
H -2.935463 2.095873 -0.454709
H -4.390590 1.022217 -0.593061
H -3.155961 1.087468 -1.917403
P 2.326073 -0.226522 -0.038847
C 3.107402 -1.769081 -0.669566
C 2.847566 -0.187168 1.724615
C 3.309874 1.120151 -0.821625
H 2.617920 -2.624345 -0.163329
H 4.198407 -1.783417 -0.471917
H 2.924543 -1.852360 -1.758677
H 2.333374 -1.020817 2.242225
H 2.507760 0.764941 2.175658
H 3.947285 -0.286272 1.830421
H 3.155970 1.086994 -1.917784
H 4.390601 1.022180 -0.593422
H 2.935446 2.095842 -0.455398
C -0.000021 1.736675 -0.224968
N -0.000100 2.950553 -0.100430
C -0.000243 3.915781 0.959163
H -0.890971 4.574361 0.880728
H 0.890649 4.574186 0.881127
H -0.000511 3.440341 1.966149
C 0.000030 -1.889753 0.815444
N 0.000000 -2.835470 1.527183
