49

Ir 0.087002 -0.145017 -0.261585
H 0.070126 -0.272508 -1.935000
H 0.082810 -1.240063 -1.740212
P -2.257847 -0.228931 -0.032565
C -2.791170 0.175645 1.700568
C -2.922207 -1.940251 -0.288614
C -2.934325 -2.419374 -1.740401
C -3.357307 0.847753 -1.075733
C -3.083923 2.349879 -0.967621
C -1.974396 -0.523699 2.790125
H -2.690171 1.278266 1.794878
H -3.876064 -0.058138 1.782313
H -2.214945 -2.550353 0.313208
H -3.934652 -1.989818 0.167850
H -3.193880 0.503812 -2.118949
H -4.413316 0.606225 -0.820620
H -1.925610 -2.333706 -2.193734
H -3.230176 -3.487090 -1.792544
H -3.645716 -1.849545 -2.373544
H -3.285691 2.735064 0.053040
H -2.027791 2.586316 -1.204235
H -3.732557 2.917548 -1.665919
H -1.985171 -1.624374 2.678059
H -0.912773 -0.211836 2.730732
H -2.366075 -0.263570 3.795151
C 2.142561 -0.265704 -0.152916
C 4.287317 -0.687016 0.686888
C 4.411766 -0.106654 -0.726754
H 4.614529 0.036638 1.471375
H 4.734683 -0.873710 -1.470642
C 2.720209 0.974678 -2.247249
H 2.752019 0.269373 -3.110349
H 1.705601 1.407463 -2.178400
H 3.451213 1.788273 -2.434691
C 2.294506 -1.473728 2.024490
H 2.375434 -0.738641 2.858472
H 1.232248 -1.752722 1.830232
H 2.863188 -2.384423 2.304799
N 2.845929 -0.926461 0.799673
N 3.036292 0.317820 -1.000506
H 5.118262 0.746441 -0.794263
H 4.863128 -1.623982 0.832222
C 0.169402 1.649432 0.215855
N 0.237355 2.865761 0.369022
C 0.191668 3.727021 1.517768
H -0.709782 4.376170 1.474165
H 1.071064 4.405489 1.529233
H 0.169947 3.165532 2.479684
F -0.172555 -2.068400 0.752493
