52

Ir 0.007278 0.045209 0.148474
H 0.003105 -0.260020 2.032717
H 0.037239 -1.085752 2.135557
P 2.358087 0.003720 0.041809
C 3.018319 0.780743 -1.512491
C 3.200346 -1.650518 0.067755
C 2.999642 -2.453341 1.353308
C 3.260500 0.928148 1.383371
C 2.816751 2.375441 1.600327
C 2.431940 0.181287 -2.792587
H 2.759939 1.858122 -1.437575
H 4.127667 0.707473 -1.492425
H 2.755745 -2.210854 -0.780944
H 4.277126 -1.474401 -0.148547
H 3.094946 0.335980 2.308285
H 4.347419 0.862711 1.154185
H 1.922358 -2.663941 1.504316
H 3.522874 -3.428698 1.281737
H 3.392756 -1.932523 2.250168
H 2.960485 3.000111 0.696023
H 1.740846 2.425885 1.857826
H 3.396211 2.840058 2.424073
H 2.693593 -0.890361 -2.905948
H 1.324606 0.252842 -2.779251
H 2.809297 0.713804 -3.689449
P -2.342107 0.013793 0.040665
C -3.245176 -0.941747 1.360528
C -3.014519 -0.670292 -1.546004
C -2.493925 0.057242 -2.786930
C -3.173551 1.675146 0.167516
C -2.902293 2.420921 1.475646
C -2.910779 -2.427034 1.496977
H -3.020064 -0.408593 2.308571
H -4.330027 -0.791499 1.162618
H -2.667332 -1.725224 -1.552910
H -4.124855 -0.661764 -1.490073
H -2.788661 2.266291 -0.689173
H -4.262360 1.524160 -0.000727
H -1.384539 0.039526 -2.801621
H -2.861207 -0.430848 -3.712590
H -2.815493 1.118698 -2.821396
H -3.338548 1.898977 2.351434
H -1.812650 2.528544 1.647549
H -3.342718 3.438251 1.444814
H -3.109116 -2.989215 0.563894
H -1.841289 -2.580505 1.739276
H -3.516322 -2.880741 2.308616
C 0.039314 1.831441 -0.290414
N 0.055874 3.015256 -0.640763
H 0.016349 3.312473 -1.622471
S -0.095448 -2.379448 -0.587473
H 0.209161 -2.133043 -1.893230
