31

Ir -0.242835 -0.124974 -0.189299
H -0.308429 -0.244893 -1.908527
H -0.316762 0.713096 -1.807784
As 2.154194 -0.137065 -0.128497
C 2.938811 0.256476 1.613149
C 3.066592 1.055566 -1.375403
C 2.949422 -1.878960 -0.548738
H 2.577429 1.257770 1.908747
H 4.044507 0.234831 1.556393
H 2.575197 -0.503699 2.330355
H 2.697169 2.075171 -1.163571
H 2.799746 0.761515 -2.408516
H 4.163481 0.995888 -1.235786
H 2.558643 -2.620832 0.173255
H 4.054148 -1.833102 -0.482811
H 2.643648 -2.178382 -1.569125
N -2.381741 -0.153776 -0.173000
C -4.508974 -0.858733 -0.338815
C -3.187554 -1.238783 -0.464946
N -4.475610 0.472701 0.033687
C -3.180436 0.871883 0.127480
H -5.283737 1.068259 0.215584
H -5.443436 -1.409873 -0.478952
H -2.759166 -2.207076 -0.739867
H -2.783483 1.863920 0.410476
C -0.215270 -1.671214 0.848493
N -0.172166 -2.607573 1.654254
H -0.208701 -3.582478 1.325807
N -0.113892 2.044857 0.422549
O -1.100865 2.751245 0.697794
O 1.029365 2.529399 0.547334
