28

Ir 0.095140 0.058627 -0.169836
H 0.114733 -0.136030 -1.886751
H 0.082304 -1.066597 -1.598759
N -1.954421 0.084717 -0.178765
C -2.710971 1.149083 0.207716
C -4.107175 1.089361 0.196671
N -4.797237 0.003712 -0.194948
C -4.044700 -1.043711 -0.562978
C -2.644326 -1.032065 -0.553366
H -2.172059 2.049527 0.529496
H -4.685032 1.972536 0.519678
H -4.568688 -1.961100 -0.882986
H -2.046852 -1.914636 -0.815500
N 2.174675 -0.044705 -0.172146
C 4.467870 0.437481 -0.515034
O 4.249570 -0.822031 0.194616
C 2.930600 -0.978036 0.314052
C 3.047145 1.007708 -0.728682
H 2.790103 1.178448 -1.792959
H 2.860489 1.954085 -0.181701
H 5.002174 0.202629 -1.457390
H 5.118386 1.072100 0.118155
H 2.516231 -1.874220 0.813768
C 0.222439 1.734132 0.644183
N 0.343517 2.769074 1.311096
H 0.420727 3.686608 0.850227
S 0.007104 -2.204136 0.981165
H -0.199519 -1.708490 2.234464
