53

Ir -1.223863 -0.272306 -0.212819
H -1.174440 -0.886238 -1.796573
H -1.239490 0.071388 -2.003327
P 1.052000 -0.139529 -0.079854
C 1.478011 -2.911899 -0.252904
C 1.966211 -1.700512 0.277578
C 1.629157 1.025575 1.228076
C 1.017453 0.958840 2.497504
C 1.415814 1.833155 3.516488
C 2.421989 2.783722 3.277842
C 3.029251 2.856268 2.015964
C 2.636521 1.980964 0.990741
C 1.838014 0.496512 -1.624088
C 1.246323 1.613513 -2.255417
C 1.826863 2.147348 -3.414852
C 2.987294 1.570083 -3.958535
C 3.571140 0.455756 -3.336398
C 3.002210 -0.080610 -2.169200
C 3.156928 -1.699922 1.033109
C 3.853701 -2.899675 1.247702
C 3.368802 -4.102908 0.709976
C 2.180876 -4.106579 -0.039915
H 0.531980 -2.909060 -0.816408
H 0.205160 0.235648 2.667639
H 0.924103 1.784638 4.500029
H 2.721801 3.481114 4.074940
H 3.808133 3.608783 1.819355
H 3.107449 2.051615 -0.000999
H 0.330910 2.055906 -1.827220
H 1.364673 3.021081 -3.899513
H 3.436375 1.989224 -4.872310
H 4.477312 -0.003656 -3.760546
H 3.466010 -0.953045 -1.685072
H 3.537186 -0.758587 1.458608
H 4.780267 -2.893099 1.842254
H 3.915192 -5.043116 0.882429
H 1.791089 -5.049301 -0.453508
N -3.362639 -0.232819 -0.282498
C -5.660654 -0.788463 -0.271413
O -5.425968 0.652605 -0.354094
C -4.101403 0.826222 -0.317693
C -4.244922 -1.410621 -0.318173
H -4.044001 -1.987372 -1.244718
H -4.016264 -2.074266 0.539443
H -6.311077 -1.074665 -1.120632
H -6.201236 -0.984225 0.676960
H -3.684228 1.846907 -0.318282
C -1.283405 -1.580455 1.110783
N -1.370199 -2.565592 1.849250
H -1.392754 -2.468093 2.872540
N -1.357976 1.915449 -0.095420
C -0.926258 2.837533 0.569994
O -0.536591 3.791962 1.185024
