56

Ir -0.145834 -0.201631 -0.387946
H -0.282218 -0.431445 -2.123175
H -0.017710 0.437086 -2.189774
P 2.146946 -0.770205 -0.341944
C 2.752595 -1.265191 1.341562
C 3.328169 0.573949 -0.830362
C 3.026457 1.243442 -2.171643
C 2.667507 -2.187745 -1.425667
C 1.827790 -3.457799 -1.281329
C 2.371250 -0.285320 2.454224
H 2.317311 -2.268572 1.536471
H 3.854506 -1.398254 1.269942
H 3.305695 1.331222 -0.017909
H 4.340808 0.113586 -0.820135
H 2.607187 -1.799935 -2.465141
H 3.743447 -2.381186 -1.219661
H 2.033332 1.732901 -2.143542
H 3.781253 2.026308 -2.386169
H 3.037601 0.526148 -3.018389
H 1.871586 -3.872452 -0.253944
H 0.761536 -3.254691 -1.502697
H 2.187126 -4.244896 -1.974951
H 2.775431 0.733624 2.284930
H 1.269279 -0.184413 2.521751
H 2.750498 -0.642725 3.433134
P -2.374754 0.511083 -0.156578
C -3.032420 1.552087 -1.548091
C -2.624166 1.570331 1.343732
C -2.171227 0.916918 2.650792
C -3.654661 -0.821078 0.013999
C -3.662829 -1.828774 -1.137348
C -2.253265 2.843202 -1.810081
H -3.008497 0.893620 -2.442397
H -4.103475 1.760017 -1.329912
H -2.022048 2.482229 1.151623
H -3.694462 1.870643 1.376221
H -3.424539 -1.335914 0.970135
H -4.642632 -0.326306 0.138380
H -1.096374 0.652640 2.594554
H -2.311368 1.612753 3.502243
H -2.738751 -0.009045 2.879070
H -3.917469 -1.351683 -2.105688
H -2.668670 -2.307100 -1.243687
H -4.411358 -2.626212 -0.954655
H -2.340286 3.556457 -0.966519
H -1.173035 2.642050 -1.951519
H -2.639178 3.350180 -2.717506
C -0.526436 -1.733458 0.595195
N -0.787768 -2.762161 1.204081
C -0.850924 -3.146528 2.586852
H -0.117894 -3.954854 2.793922
H -1.854576 -3.557464 2.825430
H -0.643643 -2.298508 3.277156
N 0.429753 1.822194 0.044672
C 1.129052 2.618943 0.607969
S 2.103918 3.684906 1.346375
