29

Ir 0.015935 0.123122 0.226670
H -0.037205 0.046163 1.957236
H -0.093841 -0.866449 1.785433
P 2.281163 0.000685 0.101865
C 2.850066 -0.340267 -1.609789
C 2.999767 -1.366954 1.095748
C 3.234378 1.493788 0.604737
H 2.320589 -1.257579 -1.936176
H 3.949190 -0.476486 -1.659171
H 2.537505 0.500501 -2.258907
H 2.477819 -2.290847 0.775350
H 2.789828 -1.190058 2.168573
H 4.093003 -1.455419 0.934850
H 2.898230 2.347118 -0.016022
H 4.324968 1.342434 0.472472
H 3.014180 1.725143 1.664886
N -2.136480 0.065766 0.157608
C -4.320668 0.586477 0.269024
C -3.040838 1.048568 0.508736
N -4.161996 -0.692199 -0.233515
C -2.834410 -0.978389 -0.291371
H -4.909942 -1.323635 -0.521044
H -5.302904 1.047328 0.409010
H -2.707390 2.013380 0.902749
H -2.366879 -1.910252 -0.645616
C 0.059671 1.729076 -0.691833
N 0.106173 2.752157 -1.382383
H 0.087677 3.687193 -0.954245
Cl 0.067001 -2.314300 -0.656730
