53

Ir 1.009342 -0.210341 0.252422
H 0.941871 -0.137921 2.032949
H 0.987961 0.739592 1.919638
P -1.312813 -0.010072 0.032231
C -1.853713 -2.583726 0.999382
C -2.252542 -1.597785 0.072044
C -1.829929 0.788685 -1.544054
C -1.051406 0.570434 -2.698560
C -1.449403 1.119093 -3.925590
C -2.615684 1.898178 -4.006493
C -3.385864 2.128414 -2.855351
C -2.996318 1.576253 -1.624648
C -2.123305 1.011780 1.339032
C -1.598647 2.299294 1.592621
C -2.188326 3.109496 2.573187
C -3.292255 2.646725 3.310276
C -3.810641 1.366763 3.061203
C -3.231421 0.548700 2.076660
C -3.357328 -1.842298 -0.768345
C -4.055534 -3.057123 -0.676356
C -3.661870 -4.030592 0.255301
C -2.560336 -3.791003 1.093799
H -0.973545 -2.400486 1.635938
H -0.124905 -0.018880 -2.616455
H -0.835593 0.948335 -4.823206
H -2.920680 2.335944 -4.969592
H -4.294923 2.746805 -2.912171
H -3.597647 1.765416 -0.722180
H -0.727334 2.656036 1.014842
H -1.777430 4.112886 2.764562
H -3.748711 3.285830 4.081998
H -4.674276 0.997480 3.635625
H -3.644906 -0.452665 1.884603
H -3.670200 -1.083985 -1.501605
H -4.912462 -3.243512 -1.341874
H -4.210075 -4.982905 0.323101
H -2.240814 -4.554619 1.819389
As 3.452203 -0.083147 0.156185
C 4.500844 -1.682609 0.581006
C 4.217606 1.303677 1.297782
C 4.080587 0.410813 -1.623432
H 4.307977 -1.967628 1.632794
H 5.582809 -1.498801 0.432267
H 4.163313 -2.506877 -0.076376
H 4.030446 1.043724 2.357016
H 3.675157 2.234785 1.043386
H 5.304313 1.413738 1.116564
H 3.815080 -0.399237 -2.328701
H 5.174401 0.582998 -1.627563
H 3.529293 1.331738 -1.894754
C 1.031967 -1.887325 -0.503480
O 1.076708 -2.966872 -0.969574
Cl 1.245791 2.237841 -0.491385
