37

Ir 0.037275 -0.244120 0.077676
H -0.020005 -1.458580 1.354774
H 0.032427 -0.673627 1.865548
As -2.413033 -0.010101 0.118616
C -3.052582 1.454333 -1.004582
C -3.160652 0.454249 1.863768
C -3.520087 -1.519868 -0.462387
H -2.520527 2.367069 -0.674054
H -4.148466 1.582869 -0.910814
H -2.781676 1.237372 -2.055290
H -2.643659 1.373607 2.199922
H -2.948319 -0.364101 2.577844
H -4.252540 0.625627 1.796069
H -3.220239 -1.796198 -1.491638
H -4.596122 -1.258528 -0.439437
H -3.326721 -2.381581 0.204633
C 2.088811 -0.058372 0.044317
C 4.378731 -0.348617 0.502856
C 4.174652 0.972025 -0.254883
H 4.912644 -0.217656 1.467378
H 4.815667 1.063181 -1.156529
C 2.187243 1.991853 -1.405405
H 2.839069 2.185719 -2.282746
H 1.179759 1.692519 -1.744140
H 2.080685 2.920385 -0.804507
C 2.769898 -2.047004 1.419444
H 2.812358 -1.915917 2.523370
H 1.776045 -2.443311 1.143178
H 3.542706 -2.790393 1.127590
N 3.002588 -0.806398 0.718338
N 2.757300 0.915565 -0.621127
H 4.364437 1.864114 0.384912
H 4.941837 -1.104626 -0.092238
C 0.012829 -1.026841 -1.629759
O -0.014892 -1.459758 -2.722942
C -0.056813 1.720734 0.735483
N -0.173106 2.854509 1.051536
