77

Ir -0.000235 -0.079978 0.215061
H -0.021859 -0.109684 1.978528
H 0.006714 0.789101 1.886637
P -2.350976 -0.062222 0.099185
C -2.678414 -2.789745 0.654944
C -3.141799 -1.712851 -0.129702
C -2.987580 0.942039 -1.307187
C -2.269712 0.917415 -2.521252
C -2.740403 1.638355 -3.627631
C -3.922094 2.391070 -3.529403
C -4.635245 2.422445 -2.320021
C -4.172331 1.700035 -1.209320
C -3.214954 0.621395 1.580559
C -2.761400 1.855102 2.097505
C -3.399409 2.417910 3.212435
C -4.480435 1.758788 3.822505
C -4.929310 0.531778 3.309794
C -4.302477 -0.037846 2.189116
C -4.203556 -1.916812 -1.033051
C -4.796273 -3.185210 -1.146093
C -4.338901 -4.251655 -0.356353
C -3.279959 -4.050829 0.545301
H -1.828456 -2.633698 1.337392
H -1.326390 0.353044 -2.579820
H -2.169004 1.625502 -4.568177
H -4.283463 2.965230 -4.396499
H -5.556719 3.018992 -2.236602
H -4.728888 1.731668 -0.260322
H -1.912279 2.371632 1.614619
H -3.044628 3.381986 3.608626
H -4.974140 2.202583 4.701001
H -5.775087 0.009703 3.783410
H -4.661295 -0.998636 1.791055
H -4.566983 -1.083229 -1.652636
H -5.621586 -3.338565 -1.858417
H -4.804517 -5.245117 -0.448007
H -2.910138 -4.886152 1.159348
P 2.358943 -0.066432 0.121016
C 2.623875 -2.388389 1.679564
C 3.192773 -1.132556 1.374346
C 3.153351 1.581478 0.335436
C 2.707597 2.416462 1.381424
C 3.308247 3.665533 1.589054
C 4.354068 4.093498 0.754981
C 4.799488 3.266382 -0.287912
C 4.203885 2.013089 -0.499150
C 2.990645 -0.676291 -1.498588
C 2.401752 -0.134616 -2.663107
C 2.822237 -0.581639 -3.923597
C 3.815716 -1.571713 -4.031891
C 4.397016 -2.109645 -2.873406
C 3.989560 -1.662059 -1.604965
C 4.388893 -0.737149 2.008051
C 5.007401 -1.588699 2.937606
C 4.442474 -2.838996 3.234932
C 3.252932 -3.237352 2.601945
H 1.687201 -2.694639 1.189188
H 1.873455 2.097485 2.023886
H 2.945370 4.314551 2.400325
H 4.817843 5.079183 0.913789
H 5.614279 3.599499 -0.948962
H 4.551897 1.371191 -1.322021
H 1.621808 0.640483 -2.558602
H 2.367185 -0.154548 -4.830823
H 4.136958 -1.925153 -5.024040
H 5.173227 -2.886317 -2.953187
H 4.444291 -2.089208 -0.698461
H 4.836156 0.241473 1.777043
H 5.937532 -1.269913 3.432857
H 4.928799 -3.504200 3.965112
H 2.805097 -4.216233 2.832446
C 0.060088 -1.717834 -0.678250
N 0.170978 -2.811889 -1.231012
H 0.255715 -2.902636 -2.252462
N 0.030100 2.050201 -0.433103
O 0.509201 2.278594 -1.557582
O -0.418388 2.983807 0.253602
