58

Ir 1.102265 -0.168402 0.151679
H 1.110937 -0.965256 1.614992
H 1.101628 -0.011957 1.953575
P -1.251444 -0.023297 0.052263
C -1.673105 -2.792359 0.021710
C -2.197516 -1.546929 -0.381587
C -1.799125 1.213776 -1.202826
C -1.085024 1.300839 -2.414926
C -1.497622 2.195057 -3.412497
C -2.621146 3.013792 -3.207769
C -3.329667 2.936489 -1.998515
C -2.921374 2.040480 -0.996933
C -2.033576 0.567191 1.615156
C -1.449493 1.697827 2.231993
C -1.998886 2.193018 3.423007
C -3.115297 1.569367 4.008390
C -3.687538 0.442799 3.397630
C -3.151181 -0.059885 2.199641
C -3.423580 -1.504823 -1.077839
C -4.118341 -2.692533 -1.355344
C -3.596794 -3.929104 -0.940766
C -2.373486 -3.976521 -0.252421
H -0.700837 -2.822920 0.537807
H -0.190436 0.673047 -2.552882
H -0.930997 2.261517 -4.354311
H -2.940040 3.720119 -3.989950
H -4.205029 3.582292 -1.828110
H -3.472462 1.992099 -0.045232
H -0.566485 2.158722 1.748315
H -1.546572 3.075252 3.902598
H -3.539051 1.961708 4.946141
H -4.558817 -0.052106 3.854278
H -3.603937 -0.942971 1.723655
H -3.834030 -0.538778 -1.409519
H -5.073032 -2.650785 -1.902309
H -4.142261 -4.859643 -1.162073
H -1.953850 -4.943881 0.063844
C 3.153816 0.013861 0.148997
C 5.417322 -0.412993 0.584663
C 5.296978 0.855940 -0.266890
H 5.715796 -0.188936 1.636492
H 5.648556 0.698013 -1.314272
C 3.307596 2.242017 -0.972481
H 3.395210 2.098171 -2.073953
H 2.243004 2.373578 -0.669181
H 3.879968 3.150283 -0.692659
C 3.734808 -2.175654 1.215915
H 3.730318 -2.061232 2.324880
H 2.738001 -2.522805 0.889996
H 4.491052 -2.941167 0.946183
N 4.047550 -0.933264 0.547666
N 3.851707 1.101802 -0.258416
H 5.852915 1.721284 0.148326
H 6.139269 -1.151363 0.178940
C 1.218196 -1.418280 -1.219197
N 1.322249 -2.414329 -1.941126
H 1.276139 -2.341223 -2.964867
F 0.771775 1.991741 0.300722
