29

Ir 0.053914 -0.310112 -0.203884
H -0.069459 -0.813900 -1.839031
H 0.007915 0.143145 -1.991989
N 2.105191 -0.330639 -0.301196
C 4.282169 0.488542 -0.703768
O 4.276127 -0.694633 0.160457
C 2.993887 -0.999974 0.363184
C 2.826311 0.611842 -1.187594
H 2.675180 0.289724 -2.239597
H 2.381668 1.618732 -1.061410
H 5.022241 0.316929 -1.507718
H 4.608555 1.346955 -0.081011
H 2.772077 -1.804311 1.079261
N -2.013762 -0.081388 -0.165075
C -4.799759 0.310961 -0.237419
C -3.915243 1.367898 -0.493322
C -2.536534 1.143558 -0.447392
C -2.869391 -1.107463 0.086075
C -4.256886 -0.947123 0.062188
H -5.889042 0.463393 -0.268328
H -4.280370 2.378481 -0.726526
H -1.785833 1.936157 -0.602997
H -2.408231 -2.079555 0.306400
H -4.897668 -1.814199 0.277206
C 0.031642 -1.694140 1.027074
O 0.045290 -2.613414 1.765414
N 0.275158 1.862316 0.092288
C 0.558314 2.620588 1.001311
O 0.835883 3.430160 1.842958
