29

Ir 0.323008 -0.052277 -0.220565
H 0.429380 -0.253365 -1.913654
H 0.438281 0.780558 -1.773971
N 2.466900 0.000597 -0.144109
C 4.635051 -0.552008 -0.344816
C 3.342043 -0.971510 -0.587881
N 4.514212 0.688305 0.254130
C 3.195232 0.995302 0.363951
H 5.281416 1.282631 0.569039
H 5.603807 -1.019742 -0.543002
H 2.977819 -1.895667 -1.046458
H 2.766980 1.911414 0.792346
P -1.912377 -0.020004 -0.123039
C -5.037594 0.056610 0.005721
C -4.391243 -1.190831 0.071412
C -3.001257 -1.361521 0.019234
C -2.940769 1.374065 -0.173745
C -4.335810 1.270895 -0.110752
H -6.136746 0.084230 0.051297
H -5.015239 -2.095539 0.168059
H -2.560481 -2.368351 0.078289
H -2.439489 2.351985 -0.237334
H -4.919197 2.206600 -0.148560
C 0.366008 -1.702439 0.727467
N 0.416542 -2.682644 1.466972
H 0.468309 -3.643894 1.104356
C 0.311941 1.881769 0.539790
C 0.325849 3.021604 1.026560
H 0.318886 4.009125 1.468049
