32

Ir 0.246459 0.171156 0.245737
H 0.257425 0.049725 2.014541
H 0.200573 -0.831032 1.880090
P 2.551084 -0.053883 0.026604
C 3.018417 -0.454764 -1.702577
C 3.243040 -1.445420 1.005916
C 3.593578 1.397113 0.466436
H 2.415102 -1.338338 -1.992433
H 4.102324 -0.669490 -1.794840
H 2.741143 0.395126 -2.355448
H 2.660624 -2.346105 0.726061
H 3.096786 -1.244066 2.084914
H 4.320635 -1.595357 0.792964
H 3.269654 2.267140 -0.137871
H 4.668225 1.194748 0.282269
H 3.438974 1.643321 1.534935
As -2.190431 -0.005294 0.029168
C -3.319283 1.537271 0.460094
C -2.978797 -1.466556 1.058724
C -2.706742 -0.445619 -1.800935
H -3.195285 1.783919 1.531790
H -4.384048 1.322926 0.243380
H -2.977437 2.400335 -0.143072
H -2.853999 -1.258455 2.138453
H -2.401827 -2.372421 0.789179
H -4.051455 -1.593879 0.815196
H -2.433714 0.400699 -2.459127
H -3.791521 -0.656480 -1.872480
H -2.107631 -1.334111 -2.079459
C 0.277754 1.886763 -0.414243
O 0.300583 2.994901 -0.814029
Cl 0.170213 -2.260365 -0.600627
