37

Ir -0.171819 -0.106859 -0.248496
H -0.109604 0.074356 -1.918720
H -0.202180 -0.910921 -1.901186
N -2.303261 -0.077237 -0.256262
C -4.450223 -1.027689 -0.014308
O -4.446519 0.416724 0.237759
C -3.162866 0.795918 0.146106
C -3.041195 -1.323461 -0.555978
H -3.013065 -1.489393 -1.654448
H -2.482140 -2.150821 -0.067531
H -5.273113 -1.247001 -0.721072
H -4.660971 -1.528111 0.954601
H -2.922502 1.829954 0.432828
C 1.808108 -0.324207 -0.076786
C 4.109389 -0.245391 -0.519239
C 3.876547 -0.942043 0.825820
H 4.416199 -0.964394 -1.316771
H 4.185693 -0.304731 1.688924
C 1.774627 -1.778000 1.953106
H 1.764709 -1.117161 2.849716
H 0.739739 -2.048755 1.638201
H 2.334811 -2.702745 2.201363
C 2.574208 1.081878 -2.002930
H 2.603713 0.455920 -2.925737
H 1.584548 1.571595 -1.942631
H 3.364285 1.857384 -2.082542
N 2.782342 0.299387 -0.808390
N 2.424898 -1.123723 0.832035
H 4.404658 -1.913216 0.916563
H 4.874774 0.556823 -0.474925
C -0.071629 1.495150 0.692552
N -0.030296 2.552310 1.317375
C 0.149358 3.922907 0.916746
H 0.222684 4.049117 -0.188213
H 1.071517 4.338840 1.376514
H -0.693660 4.546300 1.284198
F -0.546846 -2.166026 0.366570
