32

Ir -0.457515 0.116115 -0.187453
H -0.471263 0.167541 -1.915113
H -0.511762 -0.791053 -1.753907
N -2.707537 0.226445 -0.272693
C -3.242019 0.246713 1.117866
C -3.127485 1.459123 -0.987144
C -3.264440 -0.954691 -0.986055
H -2.746247 2.351999 -0.460168
H -4.238499 1.508072 -1.034346
H -2.716072 1.455418 -2.013056
H -2.941281 -1.869558 -0.459028
H -2.896196 -0.964866 -2.028231
H -4.375477 -0.898978 -0.993390
H -2.880339 1.150825 1.639976
H -2.878229 -0.660587 1.635051
H -4.354736 0.254736 1.094301
P 1.803044 0.058341 -0.077341
C 4.922814 0.105454 -0.114754
C 4.261981 -1.100779 -0.408777
C 2.870036 -1.258525 -0.429376
C 2.841887 1.410658 0.229316
C 4.237841 1.294868 0.191883
H 6.023103 0.118756 -0.122547
H 4.875971 -1.988845 -0.634891
H 2.400957 -2.232936 -0.624613
H 2.373367 2.376869 0.472036
H 4.832010 2.197113 0.413893
C -0.424187 1.787983 0.653859
O -0.425732 2.828374 1.200484
N -0.565592 -1.962555 0.654848
O 0.438535 -2.682749 0.633399
O -1.620172 -2.368439 1.178872
