37

Ir 0.111000 -0.092581 0.254706
H 0.104103 -0.369788 1.964981
H 0.133157 0.603240 1.914976
P -2.208535 -0.048368 0.168900
C -5.339197 0.062297 -0.040023
C -4.626483 1.270424 0.078000
C -3.232274 1.352957 0.173343
C -3.320179 -1.373701 0.019536
C -4.707239 -1.193546 -0.071704
H -6.436690 0.102134 -0.114140
H -5.200482 2.212731 0.089190
H -2.718745 2.325511 0.236295
H -2.891541 -2.387753 -0.009739
H -5.340117 -2.091801 -0.171548
C 2.157403 -0.009794 0.093427
C 4.440352 0.100245 0.600898
C 4.259843 0.153381 -0.919677
H 4.739738 1.088683 1.023131
H 4.591773 -0.787869 -1.418588
C 2.214574 0.503269 -2.359355
H 2.068714 -0.463730 -2.888460
H 1.236144 1.004980 -2.240931
H 2.882228 1.153309 -2.959355
C 2.846829 -0.485719 2.458403
H 2.720565 0.463326 3.027743
H 1.931057 -1.093657 2.580729
H 3.702924 -1.042600 2.889678
N 3.092422 -0.257507 1.053973
N 2.809282 0.310086 -1.050244
H 4.797440 0.998227 -1.395734
H 5.186409 -0.651526 0.930222
C 0.165379 -1.599332 -0.887313
N 0.245777 -2.434883 -1.789604
H 0.267697 -3.442267 -1.580378
C 0.067294 1.917705 -0.267115
C 0.034283 3.098456 -0.638204
H 0.010751 4.129387 -0.964077
