33

Ir -0.242179 0.203697 -0.336527
H -0.448102 0.510533 -2.013424
H -0.195085 -0.419488 -2.062535
N -2.238943 -0.315400 -0.218055
C -3.237955 0.605446 -0.215934
C -4.579752 0.209401 -0.164096
N -4.962002 -1.076143 -0.119040
C -3.964548 -1.975368 -0.116397
C -2.610042 -1.622738 -0.162506
H -2.936056 1.660297 -0.264415
H -5.371902 0.978226 -0.164647
H -4.241367 -3.042839 -0.074362
H -1.780920 -2.349164 -0.141792
N 1.799396 0.586594 -0.409093
C 4.594761 0.861282 -0.495853
C 3.803945 1.190123 -1.608274
C 2.418334 1.042114 -1.529179
C 2.561092 0.281316 0.672392
C 3.954326 0.399891 0.659957
H 5.689943 0.958942 -0.534417
H 4.250878 1.556793 -2.543306
H 1.763595 1.285603 -2.376882
H 2.023819 -0.086135 1.556421
H 4.516472 0.110318 1.558507
C -0.465209 1.625934 0.867306
N -0.568744 2.510492 1.697883
C -0.845853 3.912467 1.777496
H -1.727630 4.091002 2.428016
H -1.040020 4.369277 0.780996
H 0.009287 4.443373 2.245714
N 0.317084 -1.878688 0.117035
C 1.255898 -2.494764 0.556037
S 2.524834 -3.296874 1.161995
