38

Ir -0.059533 -0.141941 -0.221909
H -0.096692 0.183200 -1.873023
H -0.106599 -0.801231 -1.931560
N -2.221617 -0.169444 -0.180374
C -5.018209 -0.327945 -0.071848
C -4.380464 0.888629 -0.357135
C -2.982581 0.927432 -0.401629
C -2.829190 -1.349423 0.100478
C -4.222584 -1.460025 0.161064
H -6.116546 -0.390892 -0.030538
H -4.954413 1.807746 -0.544814
H -2.431423 1.855028 -0.616160
H -2.107222 -2.175444 0.270709
H -4.673564 -2.436250 0.392508
C 1.933003 -0.261197 -0.136535
C 4.061124 -0.809515 0.666577
C 4.208908 -0.053396 -0.658636
H 4.372465 -0.189705 1.541562
H 4.518582 -0.727101 -1.493663
C 2.554968 1.256154 -2.028578
H 2.569929 0.670572 -2.977757
H 1.549496 1.699837 -1.905078
H 3.307216 2.068307 -2.108107
C 2.042617 -1.792653 1.830911
H 1.018105 -2.111639 1.532834
H 2.660644 -2.692371 2.028161
H 2.019946 -1.166842 2.751905
N 2.621253 -1.062451 0.717524
N 2.847424 0.436521 -0.877712
H 4.936559 0.783011 -0.611362
H 4.638233 -1.756130 0.700149
C -0.002326 1.377405 0.855933
N 0.023660 2.374520 1.569898
C 0.074860 3.786246 1.306251
H 0.980420 4.231824 1.770989
H -0.798859 4.295557 1.766294
H 0.087302 4.027212 0.217765
F -0.258368 -2.265499 0.222189
