59

Ir -0.951018 -0.481252 -0.110666
H -0.778288 -1.236498 -1.631059
H -0.932211 -0.329844 -1.929097
P 1.370333 -0.004021 -0.063539
C 2.133978 -2.704356 -0.021287
C 2.496928 -1.398976 0.369274
C 1.801220 1.302590 1.164709
C 1.191244 1.248993 2.434988
C 1.515330 2.199575 3.412487
C 2.440649 3.218122 3.127753
C 3.044267 3.279377 1.862350
C 2.728833 2.324370 0.881798
C 2.043636 0.639484 -1.655451
C 1.335990 1.688359 -2.285458
C 1.807458 2.215208 -3.496276
C 2.971607 1.698592 -4.091779
C 3.669017 0.651484 -3.470014
C 3.210492 0.122144 -2.251828
C 3.715145 -1.190777 1.049143
C 4.560283 -2.276287 1.326976
C 4.198650 -3.573441 0.927736
C 2.985047 -3.785256 0.253384
H 1.169011 -2.863925 -0.527979
H 0.452605 0.460873 2.647147
H 1.033510 2.151177 4.401120
H 2.686380 3.970230 3.893260
H 3.764747 4.079128 1.631349
H 3.200503 2.380341 -0.110870
H 0.417005 2.076305 -1.811659
H 1.256025 3.035391 -3.981599
H 3.334674 2.112670 -5.045284
H 4.579120 0.240334 -3.933631
H 3.762892 -0.697027 -1.767456
H 4.000357 -0.176524 1.367880
H 5.506680 -2.106811 1.863326
H 4.861781 -4.423604 1.150506
H 2.692196 -4.801490 -0.052028
C -3.015638 -0.546549 -0.082684
C -5.261150 -0.710855 -0.761286
C -5.166568 0.201628 0.470262
H -5.757049 -0.220561 -1.624610
H -5.862645 -0.087285 1.284659
C -3.311674 0.702359 2.083473
H -3.821827 0.275686 2.973437
H -2.220357 0.564459 2.178015
H -3.531548 1.789146 2.020859
C -3.504161 -1.783668 -2.212019
H -3.447892 -1.170181 -3.138215
H -2.527355 -2.272618 -2.048284
H -4.272499 -2.571426 -2.361380
N -3.850537 -0.990834 -1.055450
N -3.769017 0.032351 0.883380
H -5.340007 1.272966 0.223235
H -5.802770 -1.663182 -0.555860
C -0.842971 -1.654615 1.323761
O -0.784937 -2.435923 2.201135
N -1.223360 1.709445 -0.247827
C -2.181019 2.451159 -0.210649
O -3.121167 3.205953 -0.150929
