40

Ir 0.245692 0.036383 -0.248350
H 0.153420 -0.318937 -1.903815
H 0.284414 -1.241950 -1.561083
P -1.996883 -0.182827 0.095900
C -2.589966 0.632155 1.653198
C -2.484969 -1.956717 0.307821
C -2.529207 -2.775661 -0.982920
C -3.141834 0.489041 -1.202599
C -2.936162 1.969266 -1.529759
C -1.828122 0.202274 2.908389
H -2.464357 1.722985 1.489295
H -3.679942 0.430181 1.743512
H -1.664486 -2.335860 0.958966
H -3.453148 -1.990589 0.852582
H -2.956991 -0.132173 -2.104134
H -4.183781 0.279612 -0.873416
H -1.566445 -2.703885 -1.528692
H -2.696956 -3.847159 -0.751201
H -3.341057 -2.455106 -1.668048
H -3.122528 2.620698 -0.651868
H -1.895454 2.150909 -1.865087
H -3.624478 2.292398 -2.337113
H -1.914005 -0.887102 3.095975
H -0.752144 0.450022 2.805753
H -2.216918 0.730863 3.802407
N 2.374871 0.022234 -0.265165
C 4.505790 -0.900201 0.151320
O 4.524296 0.566787 0.124912
C 3.248931 0.944209 -0.039830
C 3.084461 -1.272616 -0.307201
H 2.513020 -1.963441 0.355608
H 3.038142 -1.665625 -1.345313
H 4.727662 -1.209906 1.194596
H 5.314549 -1.261399 -0.512047
H 3.023590 2.018114 0.037941
C 0.174127 1.854936 0.122066
N 0.157915 3.043271 0.477678
H 0.054690 3.782836 -0.232526
O 0.498030 -1.776574 0.978027
H 0.531768 -1.424951 1.888140
