32

Ir -0.290897 -0.123414 -0.261224
H -0.313633 -0.405286 -1.939890
H -0.351560 -1.345803 -1.558518
N -2.427752 -0.040740 -0.380450
C -4.491047 0.612172 -0.979845
C -3.144436 0.876870 -1.127578
N -4.562732 -0.477423 -0.130647
C -3.304291 -0.849929 0.217234
H -5.415434 -0.935873 0.191452
H -5.378938 1.095381 -1.397827
H -2.640179 1.655737 -1.707488
H -2.986878 -1.660505 0.896397
P 1.959174 -0.052806 -0.200936
C 5.078123 0.145764 -0.305440
C 4.328101 1.336027 -0.319709
C 2.928494 1.383146 -0.286527
C 3.101352 -1.355688 -0.203664
C 4.482797 -1.127496 -0.250861
H 6.176040 0.214000 -0.338612
H 4.872922 2.294221 -0.365823
H 2.401524 2.349490 -0.310530
H 2.682319 -2.368981 -0.125847
H 5.144319 -2.010428 -0.241715
C -0.324557 1.674861 0.330626
N -0.373783 2.849146 0.652721
C -0.443238 3.606668 1.871207
H -1.347759 4.249825 1.866796
H 0.433134 4.283828 1.945416
H -0.469771 2.959145 2.775272
N -0.330353 -2.008506 0.994186
O 0.702463 -2.678953 1.099021
O -1.352472 -2.339986 1.627963
