29

Ir -0.096005 -0.215310 -0.181613
H -0.116989 -0.607224 -1.828051
H -0.010953 0.383022 -1.904664
N 1.960994 -0.377898 -0.198372
C 4.271503 0.090582 -0.462126
O 4.016008 -1.292449 -0.059575
C 2.693228 -1.414360 0.064232
C 2.868782 0.719138 -0.610939
H 2.618043 1.017118 -1.649325
H 2.722449 1.606232 0.034600
H 4.859926 0.063981 -1.400144
H 4.882769 0.561330 0.333511
H 2.299645 -2.389548 0.385881
N -2.140163 0.037228 -0.171685
C -4.479063 -0.308243 -0.187336
O -4.114383 1.102013 -0.064649
C -2.780665 1.155374 -0.036600
C -3.128679 -1.043796 -0.343497
H -2.987451 -1.510540 -1.339780
H -2.953512 -1.829243 0.418248
H -5.153119 -0.408276 -1.060227
H -5.035091 -0.590068 0.729693
H -2.268131 2.121464 0.101533
C -0.223587 -1.665011 0.971667
N -0.273233 -2.732542 1.597645
H -0.276101 -2.724534 2.627577
N 0.001123 1.938166 0.267191
C 0.793848 2.753844 0.683654
O 1.583077 3.578603 1.073923
