30

Ir -0.154092 0.144095 -0.248516
H -0.135264 0.090454 -1.951908
H -0.209401 -0.883063 -1.708880
N -2.274929 0.152692 -0.239640
C -3.034910 0.150533 -1.360114
C -4.430364 0.094711 -1.276668
N -5.085224 0.059221 -0.103277
C -4.321599 0.064957 0.995887
C -2.917437 0.098615 0.951382
H -2.508343 0.197444 -2.323746
H -5.033760 0.083387 -2.200408
H -4.831820 0.037330 1.973913
H -2.297460 0.083586 1.855557
P 2.105324 0.089078 -0.131936
C 5.222189 0.016941 -0.048229
C 4.572183 1.239265 0.201554
C 3.181227 1.408018 0.186746
C 3.132766 -1.277785 -0.399137
C 4.528054 -1.173646 -0.330652
H 6.321861 -0.009430 -0.017079
H 5.193166 2.123898 0.421416
H 2.736487 2.393406 0.392440
H 2.629030 -2.238690 -0.580224
H 5.116453 -2.090221 -0.505140
C -0.155664 1.818828 0.621872
N -0.222657 2.829229 1.314971
H -0.223696 3.781521 0.927938
N -0.312940 -1.886711 0.711761
O 0.588962 -2.720026 0.581814
O -1.321516 -2.120566 1.391729
