30

Ir -0.116086 -0.332007 -0.164429
H -0.199449 -0.408864 -1.968102
H -0.197150 0.465134 -1.925072
As 2.274315 -0.281331 -0.099244
C 3.000151 0.394964 1.580011
C 3.114783 0.841157 -1.457323
C 3.182654 -2.003469 -0.308626
H 2.551728 1.393600 1.742136
H 4.104967 0.454668 1.533705
H 2.685259 -0.284093 2.394723
H 2.688715 1.855925 -1.340074
H 2.856585 0.446606 -2.458493
H 4.214078 0.853866 -1.324780
H 2.813521 -2.693314 0.474296
H 4.279935 -1.882169 -0.220072
H 2.927280 -2.423577 -1.299954
N -2.269528 -0.215118 -0.112215
C -5.074386 -0.104007 -0.056681
C -4.301550 0.966988 0.412870
C -2.905347 0.879271 0.372183
C -3.013473 -1.255351 -0.563686
C -4.411654 -1.235623 -0.554176
H -6.173914 -0.060044 -0.033669
H -4.767271 1.878000 0.815703
H -2.245157 1.697542 0.709272
H -2.447702 -2.121371 -0.936467
H -4.965335 -2.106577 -0.933238
C -0.116292 -1.860220 0.848436
O -0.101952 -2.848846 1.489841
Br 0.160376 2.352498 0.226713
