52

Ir 1.147105 -0.087154 0.100990
H 1.180393 -0.214852 1.823256
H 1.225101 0.720988 1.749293
P -1.137248 -0.028768 0.054812
C -1.407038 -2.704926 0.858245
C -1.971403 -1.678912 0.071885
C -1.865868 0.820036 -1.410772
C -1.189565 0.749125 -2.645024
C -1.752449 1.334913 -3.787364
C -2.984382 2.005348 -3.704776
C -3.653595 2.090402 -2.473719
C -3.097529 1.500438 -1.327176
C -1.889718 0.850182 1.495217
C -1.444803 2.161109 1.778917
C -1.997984 2.863647 2.858895
C -2.985003 2.270246 3.664859
C -3.423402 0.966852 3.385554
C -2.880726 0.255806 2.302050
C -3.160784 -1.928490 -0.642300
C -3.779048 -3.186903 -0.563583
C -3.219534 -4.200992 0.229653
C -2.032756 -3.956895 0.940694
H -0.460549 -2.514951 1.388243
H -0.210286 0.249047 -2.692316
H -1.216233 1.281887 -4.747300
H -3.419222 2.472883 -4.601758
H -4.613361 2.624839 -2.400971
H -3.620161 1.577769 -0.361395
H -0.663538 2.618284 1.145078
H -1.649949 3.885839 3.074081
H -3.412375 2.825413 4.514359
H -4.194698 0.495069 4.013855
H -3.230977 -0.764820 2.087437
H -3.604701 -1.139335 -1.267303
H -4.704291 -3.374740 -1.129956
H -3.705472 -5.187263 0.288085
H -1.582949 -4.751441 1.555659
N 3.322837 -0.090394 0.139828
C 6.123643 -0.096802 0.309894
C 5.393290 -1.284266 0.463911
C 3.998036 -1.242368 0.372643
C 4.022933 1.058793 -0.016754
C 5.419951 1.090422 0.063607
H 7.222250 -0.098430 0.379200
H 5.891880 -2.245555 0.654531
H 3.382475 -2.147140 0.479083
H 3.403884 1.954133 -0.214836
H 5.941532 2.049448 -0.069323
C 1.171875 -1.613357 -0.954115
N 1.246770 -2.711672 -1.507584
H 1.234033 -2.810571 -2.530725
Cl 1.128632 2.382937 -0.575475
