44

Ir -0.470559 -0.171310 -0.207410
H -0.515599 -0.573067 -1.899825
H -0.471457 0.337932 -2.040076
P 1.803333 -0.307299 -0.119572
C 2.493716 -0.507349 1.590788
C 2.726107 1.168787 -0.768126
C 2.300439 1.648922 -2.156467
C 2.572628 -1.706516 -1.070358
C 1.985599 -3.090486 -0.790908
C 1.936309 0.490020 2.609775
H 2.255344 -1.549406 1.891699
H 3.600311 -0.437394 1.506497
H 2.590046 1.982812 -0.026322
H 3.801556 0.885756 -0.744349
H 2.443764 -1.438580 -2.141066
H 3.665102 -1.673675 -0.863026
H 1.245037 1.985174 -2.140608
H 2.926965 2.506706 -2.473806
H 2.402084 0.858657 -2.928747
H 2.089858 -3.382734 0.273225
H 0.903640 -3.115457 -1.026443
H 2.497769 -3.860563 -1.402779
H 2.133207 1.543992 2.327792
H 0.836490 0.380540 2.696512
H 2.386305 0.317477 3.608465
N -2.729944 0.084302 -0.180677
C -3.416704 -1.199433 -0.449340
C -3.098832 0.586702 1.165409
C -3.131416 1.088579 -1.195632
H -2.819886 -0.164138 1.926942
H -4.194871 0.780490 1.221008
H -2.537039 1.519086 1.359493
H -2.902157 0.702249 -2.206019
H -2.550523 2.013944 -1.023888
H -4.223504 1.294613 -1.124210
H -3.116921 -1.949622 0.304926
H -3.119942 -1.573973 -1.446427
H -4.522635 -1.063570 -0.420801
C -0.581948 -1.595532 0.960039
N -0.683751 -2.604776 1.670235
H -0.694012 -2.523002 2.696116
N -0.439535 1.999177 0.027588
C 0.266359 2.829460 0.559639
O 0.966649 3.670780 1.063866
