59

Ir 1.317440 -0.007145 0.447966
H 1.198144 -0.062450 2.151717
H 1.206065 0.899784 2.051706
P -0.931614 -0.051992 0.138005
C -1.323031 -2.619486 1.206491
C -1.752322 -1.703439 0.223893
C -1.443506 0.610575 -1.506131
C -0.700269 0.227922 -2.642495
C -1.049847 0.714982 -3.908278
C -2.138861 1.590559 -4.051756
C -2.877460 1.977159 -2.923999
C -2.533651 1.490530 -1.652521
C -1.873953 0.976273 1.345844
C -1.376595 2.263311 1.648643
C -2.077102 3.090189 2.538483
C -3.265431 2.640327 3.139263
C -3.757116 1.359274 2.844021
C -3.067107 0.527468 1.946520
C -2.800579 -2.059552 -0.648594
C -3.413891 -3.318008 -0.534687
C -2.988257 -4.224038 0.449651
C -1.942925 -3.871733 1.320513
H -0.483319 -2.346955 1.864665
H 0.176205 -0.426567 -2.515141
H -0.455969 0.423362 -4.787984
H -2.401730 1.985713 -5.044943
H -3.722570 2.674614 -3.028784
H -3.109402 1.807368 -0.770123
H -0.439402 2.605601 1.178955
H -1.687871 4.094357 2.766589
H -3.808974 3.290593 3.842135
H -4.685474 1.000560 3.314762
H -3.458559 -0.474768 1.716009
H -3.135166 -1.352416 -1.422794
H -4.229057 -3.590965 -1.222524
H -3.468945 -5.210884 0.535535
H -1.599646 -4.582210 2.088099
N 3.575257 0.181771 0.575630
C 4.090932 0.279661 -0.811797
C 3.924943 1.423687 1.307858
C 4.172225 -0.987748 1.258103
H 3.400565 2.271359 0.828119
H 5.026877 1.583806 1.291410
H 3.584842 1.339832 2.356509
H 3.903677 -1.913003 0.716501
H 3.770690 -1.058991 2.285772
H 5.281640 -0.889447 1.302012
H 3.594508 1.131441 -1.312137
H 3.847209 -0.648199 -1.360263
H 5.195256 0.429810 -0.805649
C 1.459454 -1.710605 -0.302422
N 1.538853 -2.876951 -0.665596
C 1.519474 -3.581186 -1.914981
H 0.587957 -4.181951 -1.990681
H 2.368728 -4.293619 -1.971743
H 1.567603 -2.902232 -2.796482
N 1.388794 2.007776 -0.374928
C 0.957001 2.713773 -1.265062
O 0.566798 3.459874 -2.121220
