27

Ir -0.235776 0.385387 -0.270839
H -0.262054 0.427679 -1.999057
H -0.340877 -0.509633 -1.858314
N -2.349642 0.381223 -0.248728
C -4.559425 -0.448271 -0.375091
O -4.467703 0.808461 0.375058
C -3.174137 1.121668 0.419186
C -3.143010 -0.655787 -0.944764
H -3.071741 -0.483823 -2.039474
H -2.702554 -1.646850 -0.707543
H -5.350867 -0.328074 -1.138759
H -4.859492 -1.236218 0.345468
H -2.890943 1.996303 1.023163
P 2.009636 0.175700 -0.170551
C 5.109184 -0.145444 -0.038461
C 4.319380 -1.295176 -0.226192
C 2.921076 -1.290378 -0.301001
C 3.189739 1.423704 0.047385
C 4.562578 1.143115 0.095236
H 6.202449 -0.260540 0.010840
H 4.830136 -2.269050 -0.312351
H 2.342969 -2.221161 -0.410766
H 2.829111 2.458347 0.156816
H 5.253537 1.989646 0.244945
C -0.151269 1.998094 0.652882
O -0.115176 3.036826 1.199706
Br -0.437246 -2.136199 0.664736
