31

Ir 0.036145 0.008059 -0.260559
H -0.027007 0.160167 -1.962298
H 0.066323 -0.808299 -1.895725
N -2.011748 -0.163317 -0.184828
C -2.605296 -1.377814 -0.024707
C -4.000671 -1.492113 -0.019785
N -4.830734 -0.445872 -0.163664
C -4.230697 0.746003 -0.309762
C -2.840641 0.905860 -0.324885
H -1.908265 -2.221832 0.113379
H -4.456911 -2.488810 0.109093
H -4.877897 1.632577 -0.427631
H -2.362499 1.885513 -0.456584
N 2.114571 0.148817 -0.344460
C 4.166515 0.968451 -0.775134
C 2.813334 1.213834 -0.888638
N 4.266808 -0.258655 -0.150818
C 3.018622 -0.732317 0.100402
H 5.129537 -0.746736 0.091562
H 5.040974 1.550503 -1.079510
H 2.287693 2.071393 -1.317999
H 2.820399 -1.693149 0.591721
C 0.003501 1.575368 0.765353
N 0.006543 2.573709 1.468830
C -0.054379 3.994318 1.288668
H 0.851850 4.472801 1.716505
H -0.923774 4.413388 1.837997
H -0.136304 4.292510 0.218200
N 0.173148 -2.083891 0.437771
C 0.967292 -2.869108 0.901560
O 1.782137 -3.641371 1.350757
