35

Ir -0.146014 -0.543295 0.113466
H -0.330740 -0.685319 1.876785
H -0.221855 0.198599 1.834732
N -2.326435 -0.358892 0.100489
C -5.136098 -0.207019 0.168702
C -4.482987 -1.448200 0.174304
C -3.084967 -1.483386 0.140936
C -2.957157 0.840667 0.086378
C -4.351925 0.953750 0.122765
H -6.234872 -0.147132 0.197530
H -5.044503 -2.393138 0.205471
H -2.532347 -2.433899 0.140814
H -2.294020 1.723230 0.044379
H -4.806769 1.954979 0.111871
C 1.850158 -0.679970 0.110796
C 4.077368 -0.867644 0.863245
C 4.077675 -0.431587 -0.613566
H 4.531003 -0.104212 1.533588
H 4.618934 -1.142074 -1.277348
C 2.255936 0.099320 -2.244448
H 2.686804 -0.540307 -3.046293
H 1.153553 0.093073 -2.308568
H 2.599728 1.146227 -2.389884
C 2.236837 -1.478240 2.461590
H 2.181757 -0.644288 3.197359
H 1.242805 -1.957132 2.387418
H 2.962783 -2.228020 2.839671
N 2.652505 -1.030430 1.154280
N 2.655132 -0.392914 -0.946879
H 4.531063 0.573512 -0.761056
H 4.619365 -1.824118 1.033428
C -0.247631 -1.891094 -1.140495
N -0.361481 -2.870196 -1.882462
H -0.308791 -2.775226 -2.905832
I 0.342035 2.361254 -0.022833
