51

Ir 1.158103 -0.217810 0.208089
H 1.190273 -0.352076 1.887166
H 1.212056 0.644717 1.808450
P -1.113341 0.019370 0.045947
C -1.711775 -2.411633 1.307217
C -2.147981 -1.474644 0.347562
C -1.636555 0.619365 -1.616208
C -0.973193 0.130741 -2.759625
C -1.389406 0.531398 -4.037015
C -2.462893 1.425685 -4.183348
C -3.119149 1.922175 -3.046017
C -2.708564 1.522894 -1.764106
C -1.771468 1.290380 1.205406
C -1.062461 2.510835 1.287646
C -1.531246 3.520227 2.140312
C -2.688705 3.320893 2.913725
C -3.384760 2.104642 2.834443
C -2.930443 1.086369 1.979174
C -3.367696 -1.687044 -0.327582
C -4.143186 -2.820744 -0.038106
C -3.709453 -3.746348 0.924665
C -2.493080 -3.539929 1.596112
H -0.745872 -2.254507 1.812522
H -0.116826 -0.549726 -2.636738
H -0.863309 0.149145 -4.925210
H -2.783522 1.743574 -5.187523
H -3.954202 2.631445 -3.154129
H -3.218450 1.923528 -0.874750
H -0.149987 2.631166 0.671225
H -0.982861 4.472953 2.204897
H -3.047882 4.116788 3.584708
H -4.288127 1.942774 3.442683
H -3.478354 0.133660 1.918953
H -3.708948 -0.967821 -1.087532
H -5.091248 -2.983242 -0.573566
H -4.317931 -4.636590 1.146759
H -2.143834 -4.268067 2.344140
N 3.299374 -0.061749 0.158362
C 6.067846 0.325016 0.068246
C 5.530384 -0.902803 0.482480
C 4.140753 -1.059672 0.515205
C 3.806487 1.129428 -0.245609
C 5.185994 1.352299 -0.300688
H 7.157373 0.477625 0.033358
H 6.175752 -1.741817 0.779971
H 3.666479 -2.000953 0.829801
H 3.026067 1.871494 -0.513811
H 5.557541 2.332264 -0.633979
C 1.144940 -1.903415 -0.563017
O 1.150878 -3.010458 -0.963810
F 1.140338 1.800415 -0.590308
