38

Ir -0.049576 0.006349 -0.388555
H -0.113815 -0.002108 -2.099871
H 0.166871 -0.914421 -2.010120
N -2.105239 -0.689124 -0.258165
C -2.453405 -0.862473 1.179763
C -3.050957 0.270446 -0.884821
C -2.231717 -2.009626 -0.936219
H -2.973075 1.250708 -0.381792
H -4.093121 -0.113286 -0.805528
H -2.784659 0.403305 -1.948871
H -1.480849 -2.696831 -0.504899
H -2.028483 -1.886033 -2.015231
H -3.260491 -2.408968 -0.797335
H -2.390319 0.114419 1.690698
H -1.723676 -1.554446 1.636926
H -3.484544 -1.270891 1.275897
N 2.048482 0.584310 -0.429988
C 2.555353 0.680167 0.967921
C 2.842697 -0.447396 -1.153629
C 2.236306 1.894826 -1.107170
H 2.656942 -1.432680 -0.690566
H 3.924609 -0.193143 -1.108947
H 2.517228 -0.483277 -2.208785
H 1.663059 2.673813 -0.573935
H 1.854534 1.829092 -2.141752
H 3.316389 2.164774 -1.123347
H 2.419572 -0.291064 1.475301
H 1.980021 1.449791 1.511563
H 3.634719 0.952517 0.962648
C -0.513586 1.634355 0.360677
N -0.835254 2.756195 0.758848
C -0.959956 3.327043 2.075656
H -1.997262 3.689306 2.239879
H -0.298266 4.213948 2.173636
H -0.706817 2.609380 2.889001
N 0.529459 -1.921627 0.445068
C 1.056645 -2.532891 1.349582
O 1.583545 -3.178472 2.219155
