31

Ir 0.307675 -0.047975 -0.151149
H 0.229452 -0.334276 -1.898495
H 0.230055 0.614179 -1.863112
N 2.495282 -0.027892 -0.209301
C 3.029642 0.210180 1.164234
C 3.022052 -1.322637 -0.719047
C 2.985149 1.064454 -1.099856
H 2.704916 -2.143577 -0.051899
H 4.133469 -1.289775 -0.764258
H 2.614320 -1.514304 -1.727815
H 2.599925 2.032323 -0.733227
H 2.615128 0.894284 -2.127049
H 4.097204 1.071581 -1.106045
H 2.692826 -0.599466 1.835582
H 2.637729 1.172048 1.540074
H 4.141812 0.233071 1.135272
N -1.785059 0.009354 -0.102783
C -4.600133 0.045134 -0.123761
C -3.866747 1.153719 0.320140
C -2.469210 1.105145 0.321749
C -2.495025 -1.068238 -0.530200
C -3.891909 -1.085735 -0.554432
H -5.700337 0.060115 -0.131671
H -4.363937 2.068425 0.673470
H -1.851729 1.949458 0.661938
H -1.896112 -1.929179 -0.858159
H -4.408743 -1.988444 -0.910303
C 0.308291 -1.603734 0.903579
O 0.307787 -2.524077 1.638943
C 0.420989 1.923079 0.466270
N 0.534364 3.027395 0.877884
