29

Ir 0.106027 0.133020 -0.288492
H 0.082507 -0.163103 -2.026249
H 0.052330 -1.026010 -1.738899
N -1.936993 0.205428 -0.271492
C -2.662248 -0.894048 -0.631373
C -4.061363 -0.865263 -0.637195
N -4.782970 0.210847 -0.286529
C -4.060290 1.280640 0.085736
C -2.662810 1.298320 0.096742
H -2.090782 -1.801089 -0.874797
H -4.612373 -1.772650 -0.939400
H -4.611046 2.186957 0.392189
H -2.097811 2.188412 0.401027
N 2.186425 0.000047 -0.344919
C 4.351661 0.467522 -0.731301
C 3.059348 0.925338 -0.891617
N 4.236003 -0.744616 -0.076813
C 2.921741 -1.002415 0.147127
H 5.003978 -1.355362 0.202719
H 5.316755 0.892208 -1.022266
H 2.691328 1.843361 -1.358621
H 2.490325 -1.886965 0.640423
C 0.289140 1.755921 0.602775
N 0.460537 2.770512 1.261411
C 0.669807 4.168866 1.027901
H 1.649447 4.482598 1.446448
H -0.105711 4.766333 1.552058
H 0.647852 4.433671 -0.053671
Br -0.022624 -2.369592 0.834529
