31

Ir 0.044595 -0.242847 0.179291
H -0.077444 -0.619316 1.856541
H -0.017113 0.326631 1.943251
N -2.100647 0.030118 0.089990
C -2.961782 -1.001873 0.254442
C -4.346845 -0.791535 0.217217
N -4.891795 0.419139 0.022607
C -4.024475 1.430596 -0.141235
C -2.633078 1.258404 -0.112253
H -2.522761 -1.997075 0.416029
H -5.033091 -1.645494 0.352362
H -4.443834 2.438069 -0.306357
H -1.897416 2.071397 -0.247624
P 2.335541 -0.350925 0.176825
C 3.030098 -2.014300 0.538688
C 3.151057 0.754639 1.397328
C 3.104687 0.122762 -1.422297
H 2.680419 -2.340940 1.537158
H 4.138351 -1.997670 0.516840
H 2.652479 -2.734676 -0.212831
H 2.733511 0.563368 2.404378
H 2.957675 1.808789 1.117589
H 4.245010 0.575045 1.405080
H 2.670152 -0.497160 -2.229459
H 4.203183 -0.022431 -1.383538
H 2.884184 1.188963 -1.625928
C -0.008232 -1.758058 -0.888271
O -0.018911 -2.746247 -1.527850
N 0.210095 1.897029 -0.232491
C 1.084329 2.708374 -0.450439
O 1.951620 3.517193 -0.662287
