32

Ir -0.118797 -0.434932 -0.228477
H -0.153172 -0.981545 -1.841783
H -0.006206 -0.024475 -1.992955
As 2.329030 -0.561940 -0.092965
C 3.056540 0.106207 1.586720
C 3.272896 0.491979 -1.434437
C 3.090621 -2.354149 -0.260837
H 2.865605 1.196990 1.636256
H 4.146379 -0.087120 1.624774
H 2.545711 -0.402762 2.424986
H 3.062447 1.563162 -1.240013
H 2.907249 0.213101 -2.440382
H 4.361525 0.304009 -1.357190
H 2.656557 -2.999125 0.526878
H 4.192390 -2.317545 -0.156257
H 2.818202 -2.767637 -1.250408
P -2.387970 -0.015984 -0.115422
C -5.418434 0.700485 0.084117
C -4.478088 1.748527 0.081684
C -3.093296 1.562081 -0.001246
C -3.730608 -1.109025 -0.094003
C -5.054278 -0.654913 0.001923
H -6.486989 0.953590 0.155429
H -4.852442 2.783686 0.152599
H -2.394532 2.413015 0.010613
H -3.516743 -2.187511 -0.154918
H -5.856932 -1.411317 0.013005
C -0.248344 -1.928818 0.884924
O -0.298188 -2.910113 1.524922
N 0.203688 1.674205 0.089053
C 0.975089 2.583754 0.235582
S 2.034184 3.794356 0.434495
