31

Ir -0.096847 0.109356 0.176658
H -0.182017 0.114239 1.900258
H -0.187365 -0.815624 1.775019
As 2.285326 0.032067 0.104244
C 2.968680 -0.394678 -1.672536
C 3.075324 -1.351134 1.231388
C 3.251731 1.662881 0.590344
H 2.454729 -1.326355 -1.977932
H 4.067991 -0.526849 -1.657401
H 2.688431 0.422606 -2.363502
H 2.584794 -2.298019 0.933934
H 2.839845 -1.131254 2.290032
H 4.171675 -1.404835 1.085909
H 2.866765 2.490901 -0.035084
H 4.341651 1.539600 0.437381
H 3.042207 1.897113 1.651350
N -2.245179 0.025022 0.099469
C -5.048358 -0.114159 0.066300
C -4.267578 -1.239236 -0.235398
C -2.872442 -1.136207 -0.211612
C -2.994947 1.117993 0.385675
C -4.393340 1.085886 0.379218
H -6.147597 -0.169920 0.055850
H -4.727500 -2.204424 -0.492819
H -2.197831 -1.980669 -0.445460
H -2.435734 2.035634 0.618214
H -4.953574 2.001025 0.619507
C -0.086154 1.727946 -0.718150
N -0.104519 2.877853 -1.170905
H -0.074863 3.046387 -2.185424
Cl 0.149427 -2.332004 -0.626108
