39

Ir 0.445567 -0.272846 -0.134600
H 0.580122 -1.120955 -1.610931
H 0.433060 -0.246488 -1.978988
N 2.688852 0.115615 -0.196493
C 3.007166 0.995140 0.956316
C 3.460921 -1.141644 -0.097124
C 3.044292 0.821692 -1.450907
H 3.200781 -1.662303 0.842562
H 4.556430 -0.933885 -0.111948
H 3.202783 -1.802492 -0.945447
H 2.407282 1.721676 -1.538173
H 2.850215 0.159038 -2.314880
H 4.121512 1.106160 -1.445436
H 2.755991 0.472562 1.897551
H 2.388976 1.908812 0.878188
H 4.089352 1.261777 0.955131
C -1.538269 -0.408323 -0.021485
C -3.781369 -0.718001 -0.642138
C -3.731650 0.064033 0.678099
H -4.103100 -0.078340 -1.497265
H -4.121779 -0.525215 1.541129
C -1.846684 1.133567 1.945352
H -2.247609 0.741867 2.905921
H -0.743294 1.112460 1.975168
H -2.182188 2.182125 1.803714
C -2.016877 -1.961643 -1.933254
H -1.925497 -1.384435 -2.882142
H -1.047445 -2.449973 -1.722630
H -2.788581 -2.745665 -2.074341
N -2.386583 -1.130364 -0.813330
N -2.300024 0.310799 0.843921
H -4.294428 1.019277 0.638766
H -4.457014 -1.597674 -0.605259
C 0.608450 -1.244621 1.435980
N 0.716150 -1.791614 2.540247
H 0.840453 -2.811246 2.610552
N 0.294619 1.884100 -0.448856
C -0.548940 2.755881 -0.425528
O -1.357249 3.648224 -0.388418
