29

Ir 0.220048 0.035159 0.180182
H 0.217769 0.051053 1.870319
H 0.163640 -0.932110 1.763969
N 2.352534 -0.241924 0.021640
C 2.629398 -0.398998 -1.436557
C 3.160677 0.862942 0.588642
C 2.696598 -1.525925 0.697701
H 2.913232 1.807014 0.070056
H 4.246384 0.647083 0.469702
H 2.920782 0.978413 1.661456
H 2.012736 -2.298836 0.296814
H 2.539871 -1.419102 1.786435
H 3.759216 -1.787182 0.497857
H 2.408739 0.551176 -1.954977
H 1.951644 -1.190924 -1.810266
H 3.695395 -0.677307 -1.594943
N -1.827167 -0.072129 0.096471
C -4.164854 0.244897 0.135712
O -3.778661 -1.057037 -0.407393
C -2.443814 -1.102127 -0.392764
C -2.826910 0.918432 0.524796
H -2.720091 1.102628 1.613313
H -2.641786 1.878831 0.002301
H -4.843603 0.064218 0.992243
H -4.721456 0.785781 -0.655583
H -1.887868 -1.974496 -0.783113
C 0.264057 1.756459 -0.479082
O 0.285298 2.885121 -0.830341
F 0.157787 -1.917098 -0.761686
