35

Ir -0.197901 -0.408336 -0.153422
H -0.247906 -0.828719 -1.813557
H -0.052536 0.102136 -1.920238
N 1.926982 -0.798962 -0.176637
C 2.744313 -0.060776 -0.965330
C 4.138908 -0.183080 -0.879941
N 4.743657 -1.035039 -0.041505
C 3.925791 -1.772149 0.727891
C 2.531551 -1.664961 0.675991
H 2.274583 0.652982 -1.655335
H 4.775007 0.452839 -1.518354
H 4.390659 -2.485018 1.430714
H 1.882990 -2.269529 1.324915
C -2.139172 0.135368 -0.081526
C -4.358500 0.541985 -0.707781
C -4.128235 1.079966 0.709135
H -4.459680 1.360344 -1.458653
H -4.646010 0.468063 1.484917
C -2.046896 1.379489 2.093386
H -2.272933 0.673719 2.924317
H -0.955224 1.451207 1.939585
H -2.430607 2.383211 2.365441
C -2.978699 -0.978617 -2.168565
H -2.730321 -0.333691 -3.042247
H -2.174766 -1.726168 -2.038301
H -3.928358 -1.508619 -2.384024
N -3.127533 -0.216678 -0.949785
N -2.675894 0.951284 0.859073
H -4.450133 2.133200 0.836776
H -5.252073 -0.109454 -0.791867
C -0.591095 -1.795972 1.012197
O -0.853694 -2.696591 1.722673
N 0.434702 1.653021 0.207437
C 1.371567 2.404355 0.125894
S 2.650916 3.388067 -0.011883
