27

Ir -0.000001 0.069929 -0.097562
H 0.000003 -0.032419 -1.819138
H -0.000005 -0.963827 -1.609388
N -2.072780 0.048399 -0.151822
C -2.811642 1.185094 -0.250460
C -4.205841 1.126098 -0.362171
N -4.890646 -0.028181 -0.386257
C -4.149363 -1.141461 -0.281379
C -2.752983 -1.129333 -0.160708
H -2.265205 2.137850 -0.240977
H -4.781789 2.064250 -0.441659
H -4.679051 -2.109601 -0.290142
H -2.139849 -2.037721 -0.032164
N 2.072784 0.048385 -0.151820
C 2.752997 -1.129342 -0.160550
C 4.149377 -1.141473 -0.281223
N 4.890648 -0.028199 -0.386256
C 4.205833 1.126076 -0.362327
C 2.811633 1.185073 -0.250618
H 2.139865 -2.037718 -0.031890
H 4.679075 -2.109609 -0.289856
H 4.781771 2.064223 -0.441947
H 2.265185 2.137825 -0.241261
C 0.000023 1.690850 0.813018
N 0.000055 2.825327 1.293685
H 0.000065 2.993812 2.308778
Cl -0.000036 -2.245953 0.993981
