26

Ir -0.035994 0.080103 -0.159113
H -0.056788 0.198548 -1.911466
H -0.027360 -0.762109 -1.773608
N -2.116830 -0.024811 -0.156677
C -4.284655 0.479531 -0.470267
C -2.992072 0.933958 -0.636362
N -4.167800 -0.765754 0.116796
C -2.851421 -1.046092 0.297682
H -4.935718 -1.383415 0.380917
H -5.251199 0.929556 -0.714161
H -2.624654 1.873210 -1.060124
H -2.438026 -1.958411 0.745851
N 2.026371 0.052681 -0.169081
C 4.254696 -0.749675 -0.217377
O 4.178028 0.691999 0.021193
C 2.879355 0.997706 0.068801
C 2.796162 -1.173699 -0.482722
H 2.435876 -2.000643 0.159641
H 2.595996 -1.455652 -1.537330
H 4.688270 -1.212549 0.692540
H 4.941450 -0.915023 -1.069584
H 2.614167 2.037157 0.309055
C -0.081752 1.738719 0.727374
O -0.092376 2.745138 1.338343
C -0.005311 -1.808821 0.709124
N -0.048271 -2.868613 1.234131
