34

Ir -0.174324 0.091701 -0.256659
H -0.206307 -0.560489 -1.882644
H -0.217384 -1.368808 -1.477544
P -2.505598 -0.119959 0.010528
C -3.006336 0.099130 1.763965
C -3.147845 -1.785980 -0.425261
C -3.589179 1.045446 -0.918310
H -2.393395 -0.611327 2.353844
H -4.087861 -0.095775 1.910907
H -2.759401 1.131056 2.080052
H -2.532150 -2.512763 0.141928
H -3.004185 -1.960427 -1.509479
H -4.220307 -1.892214 -0.165827
H -3.303746 2.084439 -0.661209
H -4.660292 0.883393 -0.681666
H -3.423689 0.903820 -2.004260
C 1.895165 0.048623 -0.136798
C 4.045898 -0.711333 -0.186457
C 4.065007 0.533236 0.380003
H 4.854611 -1.421019 -0.383370
H 4.894045 1.129477 0.771871
C 2.359105 2.251376 0.995820
H 2.095979 2.992097 0.216530
H 1.478608 2.099972 1.646787
H 3.202211 2.638702 1.597042
C 2.286448 -2.267791 -1.047090
H 1.477292 -2.675149 -0.406330
H 1.916129 -2.138973 -2.083207
H 3.147028 -2.961355 -1.053432
N 2.723307 -0.992308 -0.492619
N 2.751475 0.978966 0.407648
C -0.361615 1.919477 -0.259585
O -0.575325 3.079266 -0.321174
Cl -0.132413 -1.897654 1.374193
