64

Ir -0.956836 0.083460 -0.387645
H -0.919568 -0.254357 -2.106148
H -0.904631 -1.138150 -1.888051
P -3.278191 -0.087579 -0.131928
C -3.861702 0.706044 1.439039
C -3.809153 -1.850686 0.038834
C -3.815644 -2.651781 -1.263737
C -4.376299 0.646061 -1.437329
C -4.081156 2.113792 -1.754881
C -3.107317 0.216340 2.677954
H -3.702535 1.796629 1.304756
H -4.957509 0.533143 1.521182
H -3.022374 -2.255561 0.716369
H -4.797904 -1.873430 0.545662
H -4.222132 0.020172 -2.341511
H -5.431673 0.497706 -1.118052
H -2.828196 -2.596822 -1.766139
H -4.020509 -3.722008 -1.056373
H -4.586620 -2.302623 -1.981331
H -4.234134 2.768924 -0.873425
H -3.028321 2.236452 -2.079617
H -4.742609 2.482400 -2.565202
H -3.240056 -0.871428 2.843332
H -2.020471 0.404156 2.565809
H -3.462160 0.747304 3.584395
P 1.356614 0.012207 -0.025674
C 2.082132 -2.092707 -1.719949
C 2.080127 -1.654020 -0.377441
C 1.723260 0.335710 1.750043
C 0.936211 -0.366778 2.693742
C 1.133438 -0.137507 4.062683
C 2.091830 0.794381 4.499793
C 2.857782 1.501368 3.560493
C 2.678737 1.273989 2.185267
C 2.488610 1.118039 -0.976228
C 1.951616 2.190873 -1.714096
C 2.800053 3.043477 -2.438983
C 4.186941 2.827124 -2.437045
C 4.727454 1.751428 -1.711303
C 3.883838 0.898037 -0.985533
C 2.592470 -2.499652 0.625466
C 3.099627 -3.766116 0.287899
C 3.102984 -4.195841 -1.047695
C 2.594322 -3.354096 -2.052299
H 1.676823 -1.439244 -2.508733
H 0.173912 -1.077821 2.308464
H 0.521910 -0.685476 4.796759
H 2.236520 0.975618 5.576353
H 3.600563 2.241378 3.896736
H 3.277638 1.839514 1.456105
H 0.860274 2.336980 -1.721632
H 2.372628 3.878620 -3.015202
H 4.850650 3.493884 -3.009068
H 5.813913 1.573142 -1.714593
H 4.309216 0.049391 -0.427063
H 2.592629 -2.169589 1.674635
H 3.494678 -4.420751 1.080042
H 3.500634 -5.188779 -1.308198
H 2.593410 -3.684202 -3.102600
C -1.058567 1.885728 0.020764
N -1.146165 3.030446 0.478876
H -1.178298 3.850925 -0.140243
O -0.890581 -1.812561 0.738225
H -0.337436 -2.453840 0.254574
