29

Ir 0.170371 -0.180835 -0.188867
H 0.272176 -0.368726 -1.893014
H 0.206825 0.606168 -1.820358
N 2.256419 -0.148978 -0.168151
C 4.404419 -0.807084 -0.237473
C 3.096208 -1.246123 -0.258880
N 4.331011 0.569766 -0.135369
C 3.025304 0.941712 -0.095110
H 5.120037 1.214711 -0.092189
H 5.354333 -1.347191 -0.285566
H 2.697199 -2.261704 -0.330099
H 2.593756 1.955035 0.012477
N -1.895666 -0.204933 -0.211321
C -4.704072 -0.129498 -0.172851
C -4.008138 -0.407583 -1.360334
C -2.612477 -0.443859 -1.338095
C -2.565331 0.080360 0.935509
C -3.963757 0.111282 0.990203
H -5.804093 -0.103086 -0.157669
H -4.535411 -0.601447 -2.305174
H -2.027823 -0.673236 -2.239531
H -1.944248 0.272493 1.817954
H -4.454370 0.334375 1.948145
C 0.172594 -1.648726 0.967904
N 0.127675 -2.510526 1.849499
H 0.153865 -3.512370 1.615667
N -0.014660 2.011464 0.409249
O -1.125808 2.400540 0.793157
O 0.944212 2.810565 0.391780
