30

Ir 0.120217 0.299766 0.164727
H 0.216426 0.143331 2.013686
H 0.209572 -0.697639 1.902282
N 2.258748 0.209931 0.091627
C 2.925134 -0.953904 -0.108413
C 4.326744 -0.983432 -0.105692
N 5.084241 0.108188 0.086136
C 4.411173 1.253695 0.275432
C 3.011778 1.322987 0.281795
H 2.298793 -1.849843 -0.268293
H 4.847622 -1.942691 -0.269285
H 5.001669 2.172783 0.434382
H 2.473325 2.269195 0.433432
As -2.270935 0.293517 0.105792
C -3.155920 2.013610 0.404857
C -3.129117 -0.884881 1.405261
C -3.009740 -0.296926 -1.601257
H -2.927629 2.355124 1.432343
H -4.251220 1.920471 0.271137
H -2.742298 2.751179 -0.308668
H -2.864849 -0.546410 2.425222
H -2.721272 -1.900012 1.237394
H -4.228546 -0.872641 1.274061
H -2.693320 0.415348 -2.386358
H -4.114853 -0.350201 -1.554119
H -2.571284 -1.290990 -1.812131
C 0.126952 1.927709 -0.670515
N 0.158178 3.063100 -1.155867
H 0.122278 3.217291 -2.171834
Br -0.169156 -2.360686 -0.322013
