33

Ir 0.126157 0.015450 -0.236062
H 0.236352 -0.632480 -1.884204
H 0.252691 -1.433401 -1.396751
C -1.877226 -0.063455 -0.090964
C -3.973745 0.086853 0.783017
C -4.094678 -0.416208 -0.483823
H -4.732281 0.311476 1.538323
H -4.977114 -0.721115 -1.053658
C -2.502273 -0.981325 -2.339421
H -1.817823 -0.273004 -2.845380
H -2.007352 -1.972025 -2.294669
H -3.441295 -1.066635 -2.916265
C -2.062766 0.817860 2.248521
H -1.264494 0.134215 2.600103
H -1.626402 1.821899 2.083060
H -2.873274 0.883733 2.997925
N -2.621567 0.296402 1.006820
N -2.809709 -0.495876 -1.006105
N 2.275148 -0.012691 -0.213694
C 4.491752 -0.776572 0.129244
O 4.422422 0.668227 -0.089569
C 3.121747 0.961697 -0.214285
C 3.047155 -1.266778 -0.099728
H 2.625830 -1.865538 0.732875
H 2.917499 -1.849199 -1.036436
H 4.851127 -0.937054 1.166824
H 5.235268 -1.191494 -0.578344
H 2.857565 2.025217 -0.309521
C 0.070786 1.883363 -0.136742
O 0.044334 3.049507 0.046424
C 0.200147 -1.384384 1.296944
C 0.261878 -2.165521 2.259931
H 0.311841 -2.854174 3.092699
