31

Ir 0.018210 -0.064908 -0.226560
H -0.058649 -0.171150 -1.966287
H -0.088672 0.787666 -1.827693
P 2.283734 0.015958 -0.112182
C 2.903978 0.288070 1.594516
C 3.043436 1.372876 -1.090974
C 3.180160 -1.494231 -0.666316
H 2.441521 1.222833 1.967108
H 4.010123 0.357788 1.624678
H 2.555119 -0.551333 2.226927
H 2.587504 2.321932 -0.747336
H 2.795079 1.229434 -2.160608
H 4.144106 1.399455 -0.960796
H 2.831911 -2.347255 -0.052134
H 4.278291 -1.379143 -0.561711
H 2.921696 -1.698953 -1.723255
N -2.142921 -0.025874 -0.156906
C -4.313126 -0.597194 -0.299198
C -3.019700 -1.025659 -0.528059
N -4.191807 0.679520 0.218188
C -2.871077 0.995198 0.293720
H -4.958385 1.289227 0.503336
H -5.282301 -1.079864 -0.455577
H -2.654942 -1.976548 -0.928257
H -2.445067 1.936147 0.666584
C 0.047979 -1.672047 0.752276
N 0.102706 -2.594794 1.576241
H 0.073272 -3.569957 1.243736
C 0.053974 1.880136 0.501305
C 0.090200 3.015333 1.004142
H 0.120412 4.001389 1.448007
