28

Ir -0.181782 -0.071701 0.166981
H -0.287498 -0.545003 1.825747
H -0.280183 0.466914 1.855852
N -2.336058 0.021314 0.108366
C -3.072154 -1.060485 0.462617
C -4.472244 -1.011147 0.452184
N -5.156912 0.088115 0.102524
C -4.416037 1.150798 -0.244785
C -3.013059 1.138780 -0.251787
H -2.518554 -1.963956 0.755618
H -5.051063 -1.905059 0.741904
H -4.948719 2.071325 -0.538787
H -2.408869 2.013026 -0.540055
P 2.078965 -0.012926 0.116891
C 5.192616 0.062336 0.070455
C 4.555344 -1.182233 0.217294
C 3.164111 -1.353295 0.256483
C 3.090683 1.380587 -0.057864
C 4.487135 1.273192 -0.059122
H 6.292446 0.090528 0.052972
H 5.184819 -2.083120 0.309367
H 2.728152 -2.357164 0.376563
H 2.586396 2.351699 -0.181032
H 5.067125 2.204050 -0.175317
C -0.199555 -1.641909 -0.914862
O -0.218688 -2.596055 -1.590429
C -0.108175 1.915219 -0.392604
N -0.086139 3.049002 -0.724934
