38

Ir 0.038800 -0.147682 0.195436
H 0.057411 -0.945281 1.719009
H 0.030004 -0.080735 2.080959
As -2.400508 0.027302 0.044878
C -2.863281 1.377869 -1.285841
C -3.275307 0.730590 1.647365
C -3.524226 -1.502376 -0.463628
H -2.254118 2.257961 -1.001949
H -3.945555 1.611987 -1.274267
H -2.555840 1.013709 -2.284233
H -2.704660 1.646792 1.891394
H -3.181375 0.000187 2.473541
H -4.341243 0.968378 1.464324
H -3.116047 -1.926410 -1.401634
H -4.578626 -1.198848 -0.615065
H -3.467199 -2.274476 0.327794
C 2.068142 0.109014 0.104272
C 4.375778 -0.247967 0.356197
C 4.146822 1.002901 -0.500024
H 4.758102 0.000714 1.375393
H 4.405529 0.833399 -1.572259
C 2.059513 2.323008 -1.044463
H 2.009322 2.142826 -2.142356
H 1.032817 2.443320 -0.612159
H 2.650029 3.245480 -0.865684
C 2.803257 -2.045076 1.145890
H 2.986977 -1.940941 2.241055
H 1.754113 -2.357673 0.989124
H 3.485176 -2.829097 0.754028
N 3.023935 -0.804530 0.443439
N 2.702710 1.213564 -0.363476
H 4.717611 1.887853 -0.151234
H 5.081823 -0.972585 -0.099919
C 0.126659 -1.311925 -1.241080
N 0.154173 -1.993997 -2.273253
H 0.256164 -3.016542 -2.212278
O -0.425445 2.020481 0.504348
H -0.117571 2.275150 1.393004
