35

Ir 0.369471 0.116882 -0.364192
H 0.478729 0.220939 -2.069526
H 0.252839 -0.712470 -2.005120
As -1.952719 0.684785 -0.343954
C -2.789344 0.542914 1.414372
C -3.098386 -0.449098 -1.445470
C -2.394737 2.501734 -0.916502
H -2.758758 -0.522117 1.721228
H -3.839805 0.891141 1.369403
H -2.211939 1.154578 2.132545
H -3.077555 -1.471970 -1.017882
H -2.704025 -0.468152 -2.478855
H -4.135626 -0.061062 -1.439544
H -1.808914 3.211348 -0.301796
H -3.478782 2.697803 -0.803953
H -2.095128 2.622281 -1.974893
N 2.393919 -0.510428 -0.228005
C 4.759315 -0.601174 -0.193777
O 4.137156 -1.870337 0.178757
C 2.815822 -1.675515 0.139064
C 3.567199 0.328251 -0.525590
H 3.531678 0.643543 -1.588431
H 3.529024 1.247688 0.092583
H 5.433673 -0.794885 -1.050852
H 5.365364 -0.259911 0.669511
H 2.146040 -2.504357 0.417938
C 0.735478 1.714277 0.529868
N 0.981641 2.814352 1.010962
C 1.032264 3.354824 2.342289
H 0.309573 4.192221 2.441993
H 2.037926 3.779218 2.546428
H 0.804005 2.596882 3.124956
N -0.179909 -1.881451 0.332559
C -1.116599 -2.553045 0.678880
S -2.395044 -3.439634 1.139379
