33

Ir 0.304631 -0.248264 -0.208038
H 0.203079 -0.800315 -1.817346
H 0.176787 0.159555 -2.004547
N 2.482257 -0.159795 -0.313736
C 3.012679 0.326734 0.990849
C 3.066812 -1.493456 -0.615071
C 2.888520 0.803214 -1.376003
H 2.780369 -2.211988 0.173565
H 4.175992 -1.418987 -0.672447
H 2.670477 -1.857924 -1.579897
H 2.391436 1.770797 -1.177695
H 2.557174 0.423127 -2.359255
H 3.994549 0.918904 -1.378771
H 2.740968 -0.389505 1.786184
H 2.556082 1.306470 1.217331
H 4.120026 0.423624 0.937956
N -1.765593 -0.218769 -0.155924
C -4.578747 -0.103729 -0.219894
C -3.802379 0.982796 -0.646191
C -2.408288 0.896207 -0.600866
C -2.516303 -1.273245 0.260636
C -3.913257 -1.247720 0.244207
H -5.677832 -0.060635 -0.247966
H -4.264188 1.909880 -1.015117
H -1.747570 1.724322 -0.898508
H -1.959505 -2.152130 0.612694
H -4.465485 -2.131886 0.593820
C 0.397899 -1.579464 1.074095
N 0.453401 -2.573317 1.812325
H 0.500983 -2.460052 2.834519
N 0.354388 1.925663 -0.000934
C 0.224099 2.835886 0.792946
O 0.111587 3.782905 1.524256
