38

Ir -0.096793 -0.004863 -0.369501
H -0.123158 -0.211250 -2.091259
H 0.037790 -1.104043 -1.889434
P -2.370862 -0.482038 -0.093331
C -2.792958 -0.698191 1.681209
C -2.867886 -2.079345 -0.851881
C -3.593875 0.742823 -0.715915
H -2.080697 -1.443627 2.086646
H -3.838384 -1.040040 1.822399
H -2.632933 0.262717 2.207240
H -2.160014 -2.841687 -0.470123
H -2.756922 -2.012315 -1.951646
H -3.910827 -2.353489 -0.594586
H -3.368024 1.728891 -0.264796
H -4.634023 0.445769 -0.472114
H -3.480840 0.837019 -1.813510
P 2.226416 0.322751 -0.294437
C 3.237998 -1.010740 -1.061464
C 2.902082 0.408184 1.415801
C 2.839700 1.864645 -1.091924
H 3.082059 -1.947445 -0.490432
H 4.315297 -0.748418 -1.042979
H 2.909135 -1.167448 -2.106870
H 2.723460 -0.565128 1.914696
H 2.368828 1.201095 1.974156
H 3.990970 0.619067 1.405416
H 2.591345 1.831259 -2.170643
H 3.934510 1.985171 -0.963406
H 2.307964 2.728742 -0.647892
C -0.361327 1.764185 0.151017
N -0.533083 2.949285 0.410663
C -0.615444 3.726139 1.616794
H -1.590665 4.255143 1.667598
H 0.170726 4.510637 1.623069
H -0.502312 3.108372 2.536477
N 0.162799 -1.960142 0.606353
C 1.079404 -2.551666 1.133234
O 1.986532 -3.154434 1.652465
