57

Ir -1.127563 -0.272846 -0.073480
H -0.998550 -1.033789 -1.641224
H -1.052389 -0.169931 -1.949667
P 1.239937 -0.116749 0.002240
C 1.582100 -2.873978 0.430252
C 2.121190 -1.594620 0.680933
C 1.854947 1.284647 1.025775
C 1.090888 1.667852 2.147125
C 1.538235 2.701394 2.981783
C 2.743682 3.365260 2.700056
C 3.503965 2.991455 1.580899
C 3.063424 1.954117 0.743924
C 2.034522 0.126989 -1.649667
C 1.882616 1.365554 -2.313672
C 2.406470 1.537520 -3.603441
C 3.077143 0.484284 -4.247204
C 3.231008 -0.745634 -3.589443
C 2.715243 -0.925297 -2.295678
C 3.324448 -1.482112 1.407058
C 3.978063 -2.634167 1.870941
C 3.442464 -3.905797 1.609890
C 2.244171 -4.023363 0.887524
H 0.629802 -2.957190 -0.116880
H 0.135237 1.156988 2.342195
H 0.934100 2.999480 3.852338
H 3.087118 4.184598 3.350272
H 4.444342 3.515319 1.350682
H 3.658086 1.672172 -0.138201
H 1.372528 2.212623 -1.830256
H 2.285117 2.509321 -4.106112
H 3.483974 0.624341 -5.260652
H 3.761534 -1.575104 -4.082224
H 2.848312 -1.891749 -1.787069
H 3.749530 -0.489797 1.619640
H 4.912684 -2.535431 2.444349
H 3.956625 -4.807269 1.977420
H 1.813378 -5.016483 0.687679
C -3.188210 -0.214331 -0.111743
C -5.378929 -0.513363 -0.643624
C -5.318742 0.399473 0.376214
H -6.233368 -0.924713 -1.188948
H -6.112744 0.938238 0.901618
C -3.470131 1.427249 1.751080
H -3.088734 0.809057 2.587826
H -2.638510 2.034667 1.338775
H -4.291865 2.073893 2.109047
C -3.685959 -1.839010 -1.947977
H -3.300615 -1.318651 -2.848019
H -2.887255 -2.495352 -1.554069
H -4.566518 -2.446940 -2.225752
N -4.069608 -0.884386 -0.920832
N -3.978444 0.565518 0.688446
C -1.195385 -1.410545 1.381393
O -1.259962 -2.138381 2.303728
N -1.187196 1.902623 -0.279699
C -0.630165 2.908489 -0.655004
O -0.094304 3.925052 -1.019754
