35

Ir -0.034407 0.022478 -0.042700
H -0.048664 -0.298642 -1.760319
H -0.116892 -1.186721 -1.493724
N -2.228391 -0.058250 -0.077918
C -5.017876 -0.300048 -0.201569
C -4.372335 0.825243 -0.735323
C -2.978138 0.910238 -0.653898
C -2.843491 -1.147071 0.443398
C -4.234386 -1.296920 0.398094
H -6.113498 -0.396370 -0.252834
H -4.936517 1.639337 -1.212873
H -2.427351 1.774187 -1.053912
H -2.120775 -1.864071 0.896591
H -4.692179 -2.197634 0.833310
C 1.967643 -0.090170 -0.054832
C 4.091895 -1.041891 -0.361847
C 4.260497 0.414583 0.059045
H 4.717383 -1.747375 0.221855
H 4.966166 0.980444 -0.582596
C 2.655105 2.338914 0.069588
H 1.813769 2.655381 -0.572109
H 2.424126 2.632238 1.117438
H 3.564281 2.883154 -0.254157
C 2.128849 -2.592879 -0.364244
H 1.130131 -2.658911 0.132255
H 2.055985 -2.797631 -1.458381
H 2.812802 -3.343294 0.083329
N 2.668817 -1.268173 -0.112594
N 2.894807 0.921426 -0.079028
H 4.609610 0.507830 1.116101
H 4.322929 -1.196790 -1.444292
C -0.182363 1.798388 0.431481
O -0.456293 2.902735 0.755224
O -0.243046 -1.846334 1.082405
H 0.083724 -1.642495 1.978621
