57

Ir 1.087260 0.256641 -0.070010
H 0.943942 1.304517 -1.457273
H 1.037177 0.480518 -1.896617
P -1.283444 0.033630 -0.039456
C -1.653920 2.726976 0.699181
C -2.160992 1.416203 0.823364
C -1.907141 -1.461382 0.836872
C -1.258111 -1.845383 2.027468
C -1.730812 -2.939723 2.764217
C -2.848826 -3.662974 2.315445
C -3.494780 -3.284437 1.128143
C -3.029307 -2.184585 0.389582
C -2.103592 0.001996 -1.697010
C -1.705380 -0.981835 -2.630370
C -2.286536 -1.011437 -3.906102
C -3.259469 -0.064187 -4.268359
C -3.655379 0.913939 -3.343763
C -3.083702 0.948125 -2.060958
C -3.339945 1.200385 1.566379
C -3.999892 2.280623 2.173166
C -3.494216 3.583665 2.040147
C -2.320656 3.804415 1.300857
H -0.720966 2.890995 0.137774
H -0.371390 -1.285237 2.363097
H -1.216772 -3.236365 3.691444
H -3.213880 -4.527917 2.890471
H -4.367291 -3.851508 0.768596
H -3.534990 -1.895433 -0.544040
H -0.949050 -1.727260 -2.337566
H -1.973277 -1.784888 -4.624364
H -3.710070 -0.089688 -5.272704
H -4.418177 1.659129 -3.617880
H -3.404281 1.717272 -1.343065
H -3.741775 0.181903 1.675774
H -4.915548 2.099983 2.757136
H -4.012268 4.428581 2.519607
H -1.913906 4.822358 1.199719
C 3.151529 0.300245 -0.042245
C 5.332851 0.761329 -0.490071
C 5.302989 -0.239005 0.444009
H 6.173707 1.270650 -0.969885
H 6.113900 -0.783389 0.936524
C 3.520948 -1.557083 1.604344
H 2.464348 -1.363538 1.866127
H 3.573955 -2.531600 1.081995
H 4.145027 -1.561447 2.518305
C 3.605479 2.109881 -1.714917
H 3.225387 1.653126 -2.650546
H 2.801294 2.726727 -1.271879
H 4.476051 2.749526 -1.948970
N 4.011333 1.085012 -0.766730
N 3.969012 -0.496426 0.714051
C 1.069342 1.107705 1.585240
O 1.082139 1.614246 2.646478
N 1.291711 -1.857657 -0.768156
O 0.284122 -2.586633 -0.846883
O 2.413010 -2.311372 -1.050977
