30

Ir 0.014241 -0.094053 -0.189676
H -0.082411 -0.355622 -1.927127
H -0.100180 0.600129 -1.880091
P 2.285596 0.042971 -0.118505
C 2.952313 0.411061 1.552636
C 2.985187 1.367377 -1.181949
C 3.197130 -1.472500 -0.630584
H 2.468872 1.344233 1.901558
H 4.055516 0.521559 1.537377
H 2.662723 -0.410462 2.236086
H 2.518847 2.322060 -0.869684
H 2.708804 1.167191 -2.235377
H 4.088303 1.421356 -1.085444
H 2.889160 -2.310458 0.024965
H 4.294741 -1.328698 -0.563739
H 2.914463 -1.727001 -1.670420
N -2.145940 -0.020444 -0.130330
C -4.321971 -0.562110 -0.295191
C -3.032088 -1.022263 -0.475489
N -4.189665 0.734984 0.165122
C -2.865918 1.032678 0.255933
H -4.951606 1.370350 0.402951
H -5.295417 -1.036547 -0.450095
H -2.677252 -1.997143 -0.824250
H -2.432246 1.983317 0.593137
C 0.056687 -1.720468 0.757527
O 0.118494 -2.700513 1.407923
C 0.061184 1.870276 0.482766
C 0.104287 3.029242 0.928123
H 0.137589 4.035793 1.323210
