29

Ir 0.000003 0.383625 -0.721713
H -0.471111 0.736963 -2.395693
H 0.471249 0.736938 -2.395663
P -2.064333 -0.134502 0.202351
C -4.864266 -1.035719 1.288068
C -4.354486 0.210787 1.693744
C -3.120794 0.730231 1.277481
C -2.923749 -1.602424 -0.148448
C -4.174978 -1.891014 0.406927
H -5.845496 -1.353376 1.671897
H -4.962172 0.820561 2.383814
H -2.788842 1.716310 1.639953
H -2.425037 -2.291380 -0.848075
H -4.653630 -2.845901 0.129897
P 2.064303 -0.134563 0.202399
C 4.864292 -1.035719 1.288021
C 4.174921 -1.891100 0.407029
C 2.923661 -1.602543 -0.148293
C 3.120862 0.730271 1.277352
C 4.354570 0.210846 1.693589
H 5.845542 -1.353355 1.671817
H 4.653529 -2.846031 0.130076
H 2.424884 -2.291562 -0.847812
H 2.788959 1.716400 1.639735
H 4.962320 0.820686 2.383544
C 0.000016 2.156902 -0.129961
O 0.000007 3.245270 0.291197
O -0.000024 -1.595629 -1.358808
H -0.000137 -2.149629 -0.555030
