32

Ir -0.000015 -0.563892 -0.196342
H -0.000004 -0.556492 -2.112671
H -0.000030 0.267441 -2.208430
P 2.348428 -0.462472 -0.071937
C 2.972260 0.158741 1.541109
C 3.159737 0.621440 -1.317665
C 3.223185 -2.072283 -0.278521
H 2.532136 1.160682 1.713759
H 4.079770 0.214681 1.550514
H 2.621039 -0.520560 2.341663
H 2.738687 1.640900 -1.212831
H 2.926822 0.244341 -2.332612
H 4.258497 0.642549 -1.170550
H 2.862762 -2.784113 0.489560
H 4.321068 -1.948771 -0.184053
H 2.981008 -2.490065 -1.275088
P -2.348455 -0.462357 -0.071944
C -3.159715 0.621788 -1.317501
C -2.972250 0.158636 1.541202
C -3.223298 -2.072091 -0.278768
H -2.738644 1.641220 -1.212493
H -4.258477 0.642891 -1.170396
H -2.926791 0.244862 -2.332509
H -2.531919 1.160438 1.714122
H -2.621242 -0.520932 2.341624
H -4.079748 0.214821 1.550547
H -2.981030 -2.489809 -1.275340
H -4.321184 -1.948518 -0.184416
H -2.863008 -2.784004 0.489299
C -0.000082 -2.236533 0.533868
O -0.000142 -3.297325 1.045619
I 0.000074 2.274734 0.204708
