31

Ir 0.071078 -0.131648 -0.178159
H 0.086778 -0.579502 -1.902658
H 0.038718 -1.420059 -1.559937
N -1.970805 -0.049457 -0.186183
C -2.699892 1.042383 0.180371
C -4.096676 1.017532 0.182510
N -4.818821 -0.060050 -0.173206
C -4.094722 -1.134621 -0.520609
C -2.694984 -1.157271 -0.525661
H -2.136341 1.937336 0.473883
H -4.648745 1.923564 0.487103
H -4.643605 -2.047379 -0.810980
H -2.125005 -2.061986 -0.772764
N 2.146786 -0.294503 -0.160478
C 4.454748 0.078445 -0.545344
O 4.198121 -1.099502 0.280752
C 2.874054 -1.202587 0.410468
C 3.053184 0.675757 -0.806138
H 2.798471 0.763548 -1.880871
H 2.901131 1.672368 -0.344141
H 4.972984 -0.262856 -1.464022
H 5.132421 0.746695 0.021312
H 2.431990 -2.041791 0.980499
C 0.246421 1.629785 0.406719
N 0.392737 2.731916 0.929669
C 0.571301 4.065458 0.419960
H 0.590268 4.107569 -0.692986
H 1.518910 4.498022 0.805771
H -0.245425 4.725488 0.781744
S -0.084183 -2.350538 1.061182
H -0.313487 -1.804157 2.289108
