31

Ir 0.033076 0.163267 0.106412
H 0.168159 0.820349 1.709844
H 0.129761 -0.075321 1.947884
N 2.197294 0.075288 0.097093
C 2.862878 -1.085486 0.310399
C 4.265137 -1.107854 0.333722
N 5.020991 -0.014595 0.146263
C 4.347411 1.125531 -0.073153
C 2.948008 1.186942 -0.097564
H 2.225641 -1.980103 0.444599
H 4.788663 -2.063022 0.512503
H 4.937226 2.044175 -0.236991
H 2.406656 2.128002 -0.271740
C -1.976574 0.107814 0.103067
C -4.175009 0.308738 0.655037
C -4.102575 -0.404699 -0.511245
H -5.035809 0.617876 1.254884
H -4.890049 -0.841375 -1.132219
C -2.243326 -1.219040 -2.004360
H -1.732246 -0.508695 -2.682437
H -1.515106 -1.983896 -1.661698
H -3.090390 -1.693612 -2.532504
C -2.508680 1.380862 2.197386
H -2.087031 0.716687 2.978361
H -1.749277 2.141401 1.933673
H -3.410830 1.881656 2.593736
N -2.869992 0.623189 1.011198
N -2.760047 -0.513363 -0.836080
C -0.000794 1.295899 -1.350208
O -0.029413 2.037416 -2.264893
Cl -0.063146 -2.400053 0.279983
