35

Ir -0.057713 0.155540 -0.125435
H -0.184877 1.022243 -1.598803
H -0.144337 0.136822 -1.946268
N -2.245733 0.113694 -0.115759
C -5.054928 0.097926 -0.087521
C -4.342801 1.293660 0.087663
C -2.944427 1.259497 0.068273
C -2.929522 -1.043853 -0.281325
C -4.328949 -1.086721 -0.273757
H -6.155725 0.091105 -0.077082
H -4.858710 2.252736 0.240246
H -2.338834 2.167562 0.203245
H -2.291633 -1.936933 -0.424334
H -4.835460 -2.053025 -0.412808
C 1.937365 0.137492 -0.089601
C 4.185574 0.396203 -0.696418
C 4.108783 -0.339763 0.645565
H 4.475583 -0.285970 -1.531192
H 4.440581 0.301570 1.497034
C 2.165085 -1.447928 1.834813
H 1.916672 -0.838231 2.730464
H 1.261678 -1.983679 1.480555
H 2.937236 -2.195234 2.105258
C 2.457654 1.679757 -1.998950
H 2.330458 1.089358 -2.935677
H 1.511718 2.212795 -1.787337
H 3.258474 2.428964 -2.163652
N 2.805773 0.855088 -0.867344
N 2.678987 -0.629172 0.751155
H 4.709607 -1.271465 0.667398
H 4.895113 1.248929 -0.690637
C -0.046839 0.947427 1.555697
N -0.025819 1.377206 2.712329
H -0.063445 2.385159 2.913215
Cl -0.009097 -2.360541 -0.621203
