30

Ir 0.291735 0.353857 0.256668
H 0.345205 0.432752 2.017489
H 0.341070 -0.470453 1.937849
P 2.627661 0.266319 0.072787
C 3.181409 -0.206106 -1.609404
C 3.419107 -0.952319 1.192685
C 3.505560 1.845679 0.419737
H 2.693790 -1.170258 -1.855418
H 4.285103 -0.299903 -1.655937
H 2.834502 0.561404 -2.327858
H 2.945341 -1.934768 0.996526
H 3.224903 -0.661889 2.243446
H 4.511755 -1.002082 1.012832
H 3.134224 2.627556 -0.271176
H 4.601093 1.729268 0.294687
H 3.281136 2.165070 1.455910
P -2.024093 0.212372 0.149813
C -5.138968 0.005565 -0.055145
C -4.389741 -1.180977 0.053264
C -2.993582 -1.224636 0.149114
C -3.168980 1.508122 0.012930
C -4.549360 1.282027 -0.077119
H -6.234505 -0.068914 -0.129482
H -4.933447 -2.140825 0.057620
H -2.449651 -2.181058 0.205955
H -2.774269 2.536215 -0.010035
H -5.210660 2.159975 -0.169615
C 0.282726 1.971673 -0.644392
O 0.292497 3.012492 -1.188606
Br 0.418809 -2.260101 -0.401326
