35

Ir 0.310318 0.005850 -0.187812
H 0.404604 -0.575744 -1.835198
H 0.397773 -1.398117 -1.345629
C -1.699575 0.022862 -0.137184
C -3.886774 0.573465 0.211848
C -3.860105 -0.700011 -0.280754
H -4.725381 1.207792 0.512458
H -4.670566 -1.402702 -0.493873
C -2.090772 -2.343971 -0.924879
H -1.605289 -2.286138 -1.918932
H -1.370904 -2.762317 -0.194529
H -2.976924 -3.001033 -0.991932
C -2.192783 2.283928 0.871878
H -1.360543 2.142320 1.585781
H -1.869807 2.995902 0.088192
H -3.067138 2.702384 1.403442
N -2.567934 0.998646 0.303826
N -2.526499 -1.027062 -0.482671
N 2.587102 -0.206268 -0.040416
C 2.980985 -1.634585 -0.153353
C 3.270512 0.563534 -1.107613
C 3.016705 0.300496 1.289683
H 2.934702 0.202599 -2.097219
H 4.375213 0.441812 -1.027620
H 3.017455 1.635618 -1.022745
H 2.497027 -0.272967 2.078519
H 2.743216 1.366736 1.386050
H 4.119604 0.190238 1.405220
H 2.689246 -2.020355 -1.147639
H 2.458063 -2.221047 0.623638
H 4.083166 -1.737725 -0.031846
C 0.534850 1.871392 -0.217196
O 0.822486 3.015469 -0.200467
C 0.204635 -1.396893 1.323750
N 0.191056 -2.197143 2.195266
