38

Ir 0.202938 -0.461220 -0.000085
H 0.368675 -1.553839 -1.298249
H 0.197715 -0.765425 -1.820005
C 2.217473 0.037784 -0.083678
C 4.438063 0.149409 -0.586962
C 4.151624 1.188706 0.257698
H 5.376757 -0.150814 -1.061705
H 4.793011 1.973994 0.668401
C 2.093218 2.007200 1.453691
H 2.798544 2.780079 1.809218
H 1.245879 2.471509 0.914539
H 1.692201 1.440963 2.316757
C 3.120239 -1.725556 -1.613570
H 4.126286 -2.129036 -1.830821
H 2.520741 -2.489336 -1.083227
H 2.611123 -1.479069 -2.567233
N 3.250478 -0.545200 -0.775783
N 2.800659 1.101123 0.555944
C -1.859450 -0.739723 0.068943
C -4.060046 -0.373556 0.520595
C -3.992879 -1.422677 -0.355728
H -4.919602 0.121644 0.981458
H -4.781294 -2.028712 -0.811632
C -2.144625 -2.671358 -1.502543
H -2.947688 -3.407981 -1.688997
H -1.816234 -2.237190 -2.468508
H -1.280833 -3.178147 -1.032761
C -2.419991 1.116552 1.677328
H -1.339607 1.060559 1.898154
H -2.637709 2.090806 1.193053
H -3.003293 1.011697 2.612663
N -2.756266 0.020193 0.776076
N -2.645177 -1.638071 -0.611830
C 0.417487 -1.268413 1.651245
O 0.557996 -1.817227 2.683040
N -0.251865 1.574515 -0.624377
C -0.987897 2.498681 -0.836787
S -1.982437 3.759367 -1.083156
