32

Ir 0.306399 0.057448 0.194415
H 0.315515 -0.512546 1.925683
H 0.281698 -1.333926 1.631353
N 2.507213 -0.091530 0.105660
C 2.920487 0.049542 -1.319351
C 3.154994 0.973240 0.914871
C 2.979280 -1.411655 0.604916
H 2.862188 1.964297 0.526469
H 4.262726 0.869223 0.867826
H 2.819537 0.892336 1.964997
H 2.491597 -2.207719 0.010343
H 2.701597 -1.523663 1.669285
H 4.085594 -1.478311 0.507006
H 2.584953 1.030223 -1.702400
H 2.431237 -0.755949 -1.898968
H 4.028138 -0.030534 -1.404209
N -1.748874 0.098194 0.180539
C -4.571036 -0.018775 0.024365
C -3.833097 -1.070097 0.583377
C -2.439230 -0.986275 0.638280
C -2.469059 1.116687 -0.368015
C -3.861929 1.091078 -0.460390
H -5.668721 -0.062323 -0.034076
H -4.323939 -1.971740 0.977142
H -1.832454 -1.802879 1.048755
H -1.888660 1.971190 -0.740162
H -4.377644 1.948183 -0.916976
C 0.432941 1.850535 -0.192786
N 0.526013 2.985334 -0.692133
H 0.601542 3.803787 -0.070987
S 0.146341 -2.133624 -1.048927
H -0.179649 -1.594801 -2.258237
