29

Ir -0.271125 0.340602 0.213436
H -0.207625 0.228911 2.016593
H -0.198808 -0.640275 1.886326
N 1.779398 0.295342 0.180724
C 2.440482 -0.778532 0.701395
C 3.838752 -0.843172 0.680080
N 4.615541 0.114164 0.151563
C 3.955198 1.159885 -0.371098
C 2.560901 1.268438 -0.364228
H 1.823292 -1.594062 1.102257
H 4.338831 -1.726390 1.113397
H 4.553770 1.969477 -0.823108
H 2.054608 2.141980 -0.794054
N -2.462227 0.258678 0.260618
C -2.965073 0.029943 -1.126470
C -2.929087 -0.864375 1.124533
C -3.039435 1.525186 0.789849
H -2.473467 -1.806147 0.764017
H -4.038193 -0.928787 1.085543
H -2.613953 -0.679909 2.167772
H -2.761556 2.370187 0.135255
H -2.641047 1.718065 1.802338
H -4.148344 1.445486 0.834320
H -2.523461 -0.908093 -1.511785
H -2.651824 0.868030 -1.774521
H -4.075569 -0.037922 -1.116310
C -0.355345 1.946489 -0.666087
O -0.427222 2.967366 -1.253809
Br -0.248846 -2.220752 -0.630010
