34

Ir 0.404417 0.123430 -0.363820
H 0.521779 0.231741 -2.063816
H 0.298834 -0.707742 -1.998382
As -1.915427 0.688233 -0.342847
C -2.755364 0.549708 1.414915
C -3.064620 -0.446080 -1.441437
C -2.359702 2.504463 -0.917093
H -2.725436 -0.514673 1.723926
H -3.805680 0.898343 1.368513
H -2.178226 1.162206 2.132612
H -3.043466 -1.468445 -1.012749
H -2.671380 -0.466943 -2.475234
H -4.101860 -0.057940 -1.434922
H -1.773465 3.214482 -0.303217
H -3.443740 2.700652 -0.804321
H -2.060150 2.624146 -1.975606
N 2.440978 -0.500281 -0.237537
C 4.686787 -0.564186 -0.248938
C 3.584764 0.247669 -0.437285
N 4.178942 -1.810566 0.067741
C 2.821361 -1.741292 0.069207
H 4.723351 -2.649218 0.271131
H 5.760449 -0.364596 -0.312904
H 3.529535 1.310268 -0.693496
H 2.123845 -2.557573 0.294834
C 0.778418 1.719158 0.528806
N 1.042672 2.820286 0.996836
C 1.133950 3.366598 2.323012
H 0.450370 4.235737 2.426713
H 2.160598 3.746273 2.510909
H 0.884365 2.624372 3.114253
N -0.147552 -1.876138 0.341780
C -1.079890 -2.551806 0.691024
S -2.353763 -3.444715 1.155301
