32

Ir 0.399066 -0.236236 -0.228965
H 0.457439 -0.546368 -1.905336
H 0.422869 0.427138 -1.927012
P 2.719633 0.012364 -0.023409
C 3.179303 0.548633 1.665821
C 3.381257 1.319126 -1.124462
C 3.744241 -1.473887 -0.360180
H 2.562192 1.440559 1.891007
H 4.259325 0.788056 1.736718
H 2.918867 -0.253921 2.382318
H 2.785158 2.231825 -0.928817
H 3.238071 1.016915 -2.179913
H 4.455865 1.505853 -0.927264
H 3.434816 -2.288564 0.323414
H 4.822328 -1.258273 -0.217640
H 3.566475 -1.808783 -1.400562
P -1.926792 -0.230787 -0.134996
C -5.049904 -0.259426 0.046169
C -4.382609 0.978765 0.070454
C -2.991517 1.132963 -0.003223
C -2.981048 -1.607873 -0.144407
C -4.374110 -1.488398 -0.054770
H -6.148452 -0.266286 0.111205
H -4.989961 1.895496 0.155682
H -2.552064 2.142934 0.035714
H -2.514021 -2.602583 -0.218818
H -4.973080 -2.414550 -0.063953
C 0.469489 -1.868395 0.672262
O 0.530763 -2.923861 1.182232
N 0.477500 1.857056 0.365430
C -0.196744 2.861956 0.421622
O -0.843162 3.873475 0.498512
