42

Ir -0.405174 -0.002939 -0.287248
H -0.297340 -0.770465 -1.990048
H -0.524723 0.133859 -2.006410
N -2.610797 -0.575387 -0.228361
C -2.914868 -0.962799 1.171459
C -3.476988 0.550369 -0.638279
C -2.856336 -1.739911 -1.112378
H -3.302801 1.414170 0.029008
H -4.552545 0.258989 -0.590276
H -3.225526 0.853569 -1.671621
H -2.150369 -2.544852 -0.834276
H -2.674093 -1.449333 -2.163878
H -3.908661 -2.091735 -1.010205
H -2.742064 -0.097441 1.837493
H -2.229626 -1.780449 1.462964
H -3.974169 -1.298095 1.262423
C 1.550878 0.338785 -0.201528
C 3.792738 0.592473 -0.854538
C 3.737148 0.364917 0.663133
H 4.206247 -0.290408 -1.396444
H 4.038265 1.268702 1.243809
C 1.875560 -0.309219 2.208322
H 2.204602 0.446028 2.955788
H 0.772659 -0.365617 2.206519
H 2.285584 -1.303831 2.481951
C 2.003331 1.095599 -2.550019
H 2.017631 0.201611 -3.215484
H 0.983279 1.522767 -2.554584
H 2.708634 1.847024 -2.960522
N 2.381119 0.781921 -1.193532
N 2.322518 0.071736 0.885566
H 4.373350 -0.479617 0.999256
H 4.396179 1.478261 -1.142967
C -0.716329 1.507164 0.749466
N -0.912236 2.446841 1.516242
C -1.202833 3.842520 1.321503
H -2.165518 4.105466 1.809561
H -1.262971 4.128815 0.246798
H -0.422146 4.466584 1.806183
N -0.082021 -2.102902 0.242916
C 0.809339 -2.825234 0.637042
O 1.668071 -3.563890 1.048519
