32

Ir 0.024283 -0.125116 -0.116977
H 0.146726 -0.725461 -1.708616
H 0.123671 0.214522 -1.910957
N 2.189305 -0.071696 -0.093143
C 2.922029 -1.186253 0.147256
C 4.322141 -1.149802 0.105684
N 5.013756 -0.033290 -0.172338
C 4.274890 1.064143 -0.400142
C 2.872935 1.066712 -0.363255
H 2.366115 -2.106419 0.378946
H 4.897944 -2.070541 0.304528
H 4.812994 2.001242 -0.625655
H 2.251798 1.967737 -0.522357
C -1.980001 -0.101973 -0.118469
C -4.173738 -0.353129 -0.677863
C -4.122921 0.343667 0.499293
H -5.024838 -0.675286 -1.284679
H -4.923037 0.750109 1.124655
C -2.289715 1.175490 2.013194
H -1.778619 0.458518 2.684587
H -1.561852 1.951805 1.695567
H -3.147445 1.633183 2.539246
C -2.476373 -1.356822 -2.232191
H -2.048812 -0.673033 -2.992893
H -1.714351 -2.116757 -1.974064
H -3.369187 -1.855414 -2.651885
N -2.859979 -0.626331 -1.036250
N -2.783684 0.483855 0.828132
C 0.012625 -1.332513 1.291528
N 0.054776 -2.260612 2.104547
H 0.039509 -2.087134 3.118537
Cl -0.024166 2.441545 -0.127917
