30

Ir -0.228194 0.098822 0.154849
H -0.318252 -0.148470 1.991956
H -0.361447 -0.994278 1.902519
As 2.142206 0.015819 0.059397
C 2.880440 -0.477207 -1.684666
C 2.982136 -1.294191 1.244292
C 3.109339 1.669737 0.474590
H 2.449246 -1.462484 -1.944329
H 3.986194 -0.530471 -1.648093
H 2.557124 0.272642 -2.431155
H 2.551360 -2.279475 0.981734
H 2.724952 -1.047677 2.292106
H 4.081824 -1.297355 1.113073
H 2.711420 2.477609 -0.168502
H 4.198046 1.547340 0.312388
H 2.910885 1.937393 1.529892
N -2.368659 0.035037 0.083803
C -4.540404 0.615336 0.154744
C -3.246971 1.090137 0.251193
N -4.419824 -0.743650 -0.072926
C -3.098922 -1.064427 -0.112598
H -5.187190 -1.405269 -0.191593
H -5.509810 1.117173 0.228472
H -2.882933 2.108978 0.417877
H -2.653908 -2.056699 -0.292101
C -0.232398 1.840641 -0.430610
N -0.255290 3.021502 -0.803359
H -0.241283 3.257449 -1.804514
S -0.114239 -2.370739 -0.509351
H -0.123170 -2.166331 -1.857856
