54

Ir 1.106545 -0.161858 0.305073
H 1.092925 -0.927397 1.931183
H 1.115069 -1.688846 1.489789
N 3.257943 -0.208005 0.339184
C 3.974684 0.776072 0.935720
C 5.373647 0.716574 0.983813
N 6.078192 -0.297040 0.456516
C 5.354526 -1.260126 -0.136136
C 3.954254 -1.234791 -0.206455
H 3.405332 1.610104 1.370247
H 5.937142 1.528429 1.475861
H 5.904079 -2.105505 -0.585269
H 3.345178 -2.009471 -0.708847
P -1.168469 -0.086302 0.085585
C -1.473792 1.681183 2.277882
C -2.119046 0.766023 1.422233
C -2.016599 -1.720669 -0.009471
C -1.889470 -2.590655 1.093192
C -2.524994 -3.838711 1.083142
C -3.289493 -4.231791 -0.028777
C -3.417577 -3.368520 -1.126956
C -2.784813 -2.114559 -1.120377
C -1.637122 0.808335 -1.460352
C -1.000952 0.413410 -2.659942
C -1.272597 1.102858 -3.850308
C -2.156154 2.197004 -3.853555
C -2.778192 2.595511 -2.660583
C -2.525039 1.901573 -1.464793
C -3.501892 0.524122 1.578424
C -4.227648 1.196913 2.572407
C -3.581067 2.112812 3.419549
C -2.205936 2.352359 3.270366
H -0.393954 1.857440 2.160589
H -1.285077 -2.290794 1.963253
H -2.417903 -4.512602 1.946950
H -3.783849 -5.215337 -0.038588
H -4.012477 -3.671648 -2.002220
H -2.886459 -1.445139 -1.986940
H -0.289071 -0.431241 -2.642052
H -0.779572 0.787868 -4.783005
H -2.357562 2.741660 -4.789084
H -3.467505 3.454076 -2.655470
H -3.012899 2.222609 -0.532496
H -4.010705 -0.199407 0.922699
H -5.304550 1.000220 2.689201
H -4.151451 2.636586 4.202251
H -1.693695 3.064502 3.935493
C 1.108220 1.674113 0.051499
N 1.073601 2.887413 -0.097254
C 0.928476 3.772451 -1.222972
H 1.741187 4.527985 -1.225531
H -0.031943 4.323504 -1.140775
H 0.933219 3.229047 -2.192939
Cl 1.065350 -2.164385 -1.281948
