43

Ir 0.419341 -0.042725 -0.148487
H 0.409773 -0.339660 -1.816779
H 0.436565 -1.281048 -1.503822
P -1.843890 -0.107415 -0.029116
C -2.630749 1.064772 1.177260
C -2.550700 -1.753616 0.465166
C -1.970754 -2.951589 -0.290223
C -2.738656 0.260647 -1.617529
C -2.391087 1.612232 -2.243437
C -2.084897 0.958009 2.602223
H -2.441898 2.082373 0.776870
H -3.728448 0.890693 1.139614
H -2.337504 -1.856423 1.549743
H -3.655281 -1.668737 0.358039
H -2.464803 -0.569024 -2.303739
H -3.828834 0.168589 -1.417528
H -0.892433 -3.027179 -0.034517
H -2.487336 -3.885503 0.012818
H -2.081951 -2.851232 -1.389640
H -2.690158 2.458536 -1.591563
H -1.298637 1.692954 -2.413483
H -2.909689 1.742413 -3.215032
H -2.255373 -0.046486 3.041267
H -0.995340 1.160396 2.613932
H -2.578582 1.697125 3.265303
N 2.692236 -0.107579 -0.105012
C 3.296523 0.940388 -0.951244
C 3.089001 0.076053 1.311377
C 3.125891 -1.452911 -0.553757
H 2.762046 1.072525 1.661290
H 4.193679 -0.020687 1.424022
H 2.572625 -0.707553 1.897765
H 2.879722 -1.579308 -1.624590
H 2.562404 -2.196496 0.044883
H 4.224310 -1.572983 -0.411656
H 2.965107 1.935227 -0.600729
H 2.961543 0.808255 -1.996949
H 4.409536 0.886710 -0.910618
C 0.424791 1.760230 0.289961
N 0.455621 2.930500 0.702180
H 0.440001 3.708946 0.027213
O 0.676874 -1.869651 1.008360
H 0.331900 -1.689870 1.902325
