56

Ir -1.140324 -0.211171 -0.284637
H -1.158938 -0.664629 -1.999147
H -1.150388 -1.512383 -1.612666
N -3.297681 -0.270662 -0.281515
C -4.024466 0.724202 -0.848279
C -5.422919 0.658456 -0.893249
N -6.121236 -0.374898 -0.396005
C -5.388895 -1.350900 0.164067
C -3.989231 -1.316651 0.234205
H -3.459646 1.571013 -1.263585
H -5.991733 1.482490 -1.358122
H -5.930941 -2.214711 0.586613
H -3.384128 -2.105168 0.711724
P 1.141570 -0.112050 -0.107760
C 1.440890 1.788023 -2.171722
C 2.018400 0.662665 -1.544029
C 2.044312 -1.705273 0.118952
C 1.609347 -2.847556 -0.581718
C 2.320089 -4.050871 -0.475921
C 3.462518 -4.128172 0.338374
C 3.893606 -2.995441 1.046109
C 3.189399 -1.785284 0.936691
C 1.676491 0.897520 1.344026
C 1.106169 0.582948 2.597583
C 1.461634 1.327346 3.730787
C 2.369529 2.396429 3.622674
C 2.930963 2.712970 2.376271
C 2.591306 1.962099 1.236756
C 3.255771 0.171314 -2.010624
C 3.905344 0.798152 -3.086357
C 3.331446 1.921732 -3.701072
C 2.100135 2.415559 -3.239020
H 0.470361 2.168242 -1.820085
H 0.696635 -2.794267 -1.193525
H 1.969719 -4.939580 -1.022786
H 4.013839 -5.077045 0.427242
H 4.783235 -3.051313 1.692231
H 3.530112 -0.900823 1.495954
H 0.377102 -0.241778 2.667672
H 1.017966 1.076319 4.706668
H 2.638260 2.984725 4.513771
H 3.641227 3.549336 2.285147
H 3.034921 2.212353 0.261343
H 3.714427 -0.708617 -1.535969
H 4.867055 0.400966 -3.446159
H 3.841994 2.410851 -4.545082
H 1.641826 3.294344 -3.718328
C -1.168647 1.660146 0.031227
N -1.136933 2.848950 0.317434
C -0.995458 3.602961 1.535394
H 0.040140 3.998529 1.605988
H -1.187468 2.984330 2.439007
H -1.684709 4.471882 1.534113
C -1.095811 -1.803079 1.024523
C -1.074315 -2.698344 1.883592
H -1.044186 -3.483623 2.626598
