51

Ir 1.289957 -0.124902 0.151832
H 1.311641 -0.479745 1.870343
H 1.339702 0.487594 1.857265
P -0.990463 -0.001623 0.048880
C -1.369168 -2.651859 0.894623
C -1.864027 -1.632870 0.053447
C -1.683057 0.854986 -1.431013
C -0.991281 0.759110 -2.654602
C -1.525255 1.348862 -3.809106
C -2.741795 2.049009 -3.748223
C -3.426190 2.158394 -2.527147
C -2.900790 1.562560 -1.369271
C -1.754485 0.899225 1.470400
C -1.250953 2.178226 1.796088
C -1.817122 2.900898 2.855736
C -2.876889 2.357391 3.602357
C -3.374848 1.085268 3.282398
C -2.819042 0.356300 2.217453
C -3.011254 -1.877379 -0.728089
C -3.655463 -3.123671 -0.663722
C -3.165431 -4.130339 0.182721
C -2.021462 -3.891145 0.962478
H -0.454561 -2.467355 1.479939
H -0.021536 0.238672 -2.682363
H -0.978425 1.272775 -4.761477
H -3.153831 2.519385 -4.654557
H -4.374446 2.715144 -2.471798
H -3.436941 1.655718 -0.412315
H -0.414982 2.597698 1.211550
H -1.421936 3.898386 3.103014
H -3.314045 2.926875 4.437262
H -4.203069 0.651947 3.864236
H -3.216282 -0.639583 1.970676
H -3.400849 -1.094735 -1.395819
H -4.545565 -3.308157 -1.284823
H -3.671377 -5.107106 0.229305
H -1.626698 -4.679597 1.621628
N 3.448107 -0.084868 0.202844
C 5.598870 -0.683005 0.464229
C 4.292729 -1.126015 0.536217
N 5.517963 0.643092 0.080874
C 4.208520 0.975267 -0.070896
H 6.304218 1.275877 -0.068479
H 6.552232 -1.187281 0.647115
H 3.899130 -2.112758 0.799269
H 3.810219 1.953758 -0.371143
C 1.327633 -1.683729 -0.912038
O 1.371875 -2.618814 -1.622672
C 1.335566 1.861603 -0.440164
C 1.386584 3.038681 -0.832065
H 1.401826 4.052651 -1.208572
