53

Ir 0.999207 -0.067127 0.386543
H 0.859113 0.084709 2.184919
H 0.868164 0.945810 2.030360
P -1.323856 0.018147 0.029187
C -1.813768 -2.505942 1.154475
C -2.147958 -1.636644 0.093488
C -1.780928 0.661077 -1.635640
C -0.983450 0.278661 -2.735267
C -1.321041 0.705111 -4.027373
C -2.447361 1.521265 -4.230829
C -3.239922 1.904581 -3.137668
C -2.912552 1.474102 -1.841278
C -2.325972 1.021069 1.216102
C -1.969676 2.371478 1.430962
C -2.712661 3.156881 2.323932
C -3.809404 2.610141 3.011354
C -4.165935 1.269754 2.798021
C -3.431167 0.475419 1.902654
C -3.093733 -2.048216 -0.865161
C -3.695534 -3.313708 -0.764021
C -3.365539 -4.171570 0.296297
C -2.425302 -3.763246 1.258399
H -1.058616 -2.191514 1.892507
H -0.092456 -0.346762 -2.563423
H -0.694102 0.404892 -4.880961
H -2.704486 1.863642 -5.245079
H -4.120152 2.547674 -3.291422
H -3.534827 1.778882 -0.986430
H -1.105043 2.790557 0.884130
H -2.427961 4.208438 2.483779
H -4.388032 3.230104 3.713688
H -5.025264 0.833511 3.330390
H -3.724224 -0.571944 1.740074
H -3.358375 -1.380383 -1.698540
H -4.427797 -3.629619 -1.522921
H -3.839187 -5.162452 0.372902
H -2.161920 -4.431712 2.092756
P 3.302112 -0.035819 0.251218
C 6.427681 -0.020624 -0.017671
C 5.743092 1.209087 -0.007751
C 4.353323 1.337022 0.101895
C 4.380135 -1.397905 0.214594
C 5.768133 -1.258708 0.083746
H 7.524141 -0.013593 -0.113640
H 6.336924 2.134725 -0.098462
H 3.856882 2.320336 0.070198
H 3.929697 -2.400267 0.282977
H 6.379143 -2.177094 0.060107
C 1.020429 -1.818624 -0.250777
N 1.038283 -2.893721 -0.843645
H 0.940225 -3.801715 -0.375420
S 1.057740 2.382688 -0.313579
H 0.858188 2.167914 -1.644521
