36

Ir 0.082633 -0.174679 0.130660
H 0.064060 -1.247633 1.512767
H 0.077809 -0.412013 1.950971
As -2.370826 -0.059157 0.083950
C -3.040815 1.317192 -1.131517
C -3.219636 0.447107 1.771440
C -3.367764 -1.651819 -0.472156
H -2.561198 2.269420 -0.833231
H -4.143930 1.399725 -1.079582
H -2.726422 1.060655 -2.161015
H -2.767941 1.408831 2.082536
H -2.994748 -0.322375 2.534435
H -4.315337 0.554645 1.652801
H -2.966100 -1.983474 -1.448964
H -4.451842 -1.440965 -0.554395
H -3.194401 -2.455770 0.268476
C 2.129149 -0.024135 0.081950
C 4.353853 -0.377237 0.426922
C 4.226887 0.750065 -0.339380
H 5.242169 -0.886981 0.811243
H 4.984384 1.420581 -0.755607
C 2.314385 2.044946 -1.328633
H 1.501776 1.656068 -1.969484
H 1.873465 2.813295 -0.664096
H 3.118481 2.479071 -1.951287
C 2.759824 -2.037481 1.432169
H 2.427712 -1.777064 2.457710
H 1.944527 -2.591802 0.929936
H 3.663847 -2.671407 1.491896
N 3.067093 -0.841828 0.664929
N 2.869519 0.945589 -0.546947
C 0.083635 -1.053318 -1.532013
N 0.059230 -1.660984 -2.605910
H 0.039802 -1.163427 -3.506306
C -0.087005 1.819603 0.678666
N -0.261083 2.969151 0.898689
