35

Ir 0.165661 -0.039432 0.228733
H 0.303259 -1.040846 1.696879
H 0.305011 -1.705616 1.046132
N 2.320420 -0.052493 0.213520
C 4.544331 -0.705462 -0.276614
O 4.463164 0.651884 0.263384
C 3.159288 0.901793 0.440211
C 3.103011 -1.244565 -0.170804
H 2.974344 -2.020519 0.613378
H 2.689236 -1.647770 -1.117160
H 5.289345 -1.264616 0.321620
H 4.907390 -0.624111 -1.322181
H 2.885890 1.914947 0.770010
C -1.835142 -0.081909 0.083513
C -4.086151 -0.657626 0.396627
C -3.987729 0.394642 -0.712295
H -4.325812 -1.670148 -0.007220
H -4.370952 1.390524 -0.384078
C -2.019750 1.274880 -2.017512
H -1.997330 2.352425 -1.738630
H -0.995377 0.936179 -2.259300
H -2.662078 1.150182 -2.912778
C -2.421623 -1.430954 2.117891
H -2.203510 -2.493856 1.865522
H -1.539385 -1.004707 2.631490
H -3.285035 -1.404529 2.812632
N -2.731956 -0.637586 0.952932
N -2.545377 0.455591 -0.945410
H -4.531078 0.109330 -1.636013
H -4.841424 -0.411341 1.170729
C 0.094205 1.814663 0.478210
O 0.047353 2.993595 0.508165
C 0.257451 -1.094067 -1.556091
C 0.335609 -1.655752 -2.659897
H 0.394885 -2.145503 -3.622589
