25

Ir 0.079430 -0.414798 -0.190000
H 0.154386 -0.523872 -1.962110
H 0.092285 0.371154 -1.899902
N 2.147452 -0.211328 -0.159936
C 4.349107 -0.645719 -0.296337
C 3.088395 -1.196955 -0.405843
N 4.145775 0.684709 0.018353
C 2.810594 0.920846 0.098268
H 4.870410 1.386259 0.171440
H 5.346208 -1.080239 -0.411849
H 2.787809 -2.223142 -0.636585
H 2.315610 1.876945 0.327831
N -1.969165 -0.456438 -0.206501
C -4.192334 0.050896 0.413856
O -4.100906 -0.551173 -0.920138
C -2.800358 -0.732710 -1.157786
C -2.759037 -0.033996 0.972691
H -2.628061 -0.792575 1.772441
H -2.355653 0.936235 1.328837
H -4.946719 -0.518736 0.989161
H -4.544491 1.093853 0.277234
H -2.517094 -1.110210 -2.150658
C 0.171854 -1.850791 0.956870
O 0.246454 -2.778243 1.679147
Br -0.232370 2.284888 0.277097
