37

Ir 0.320990 0.214933 -0.162069
H 0.421152 0.763576 -1.796883
H 0.371684 -0.181507 -1.947932
C -1.679049 0.198112 -0.080119
C -3.797818 -0.168278 0.659617
C -3.891421 0.357370 -0.599840
H -4.574408 -0.490194 1.359283
H -4.763498 0.593583 -1.216263
C -2.258606 1.135943 -2.335142
H -1.499747 1.933297 -2.220901
H -1.849224 0.351592 -3.002987
H -3.172366 1.559528 -2.790624
C -1.932004 -0.847288 2.189981
H -1.502019 -1.839992 1.955872
H -1.154113 -0.198289 2.631381
H -2.767049 -0.960193 2.905783
N -2.448902 -0.246229 0.966657
N -2.591745 0.585509 -1.033140
N 2.599857 0.192342 -0.166232
C 3.117275 -0.627079 -1.290240
C 3.127544 1.570245 -0.288234
C 3.056964 -0.403613 1.116442
H 2.766239 2.025531 -1.229020
H 4.242443 1.560663 -0.286146
H 2.765674 2.183914 0.556360
H 2.645826 -1.427906 1.182585
H 2.680369 0.205272 1.958697
H 4.170406 -0.438621 1.150894
H 2.818319 -0.166621 -2.250467
H 2.685634 -1.641516 -1.206945
H 4.229114 -0.683319 -1.247762
C 0.343671 1.406700 1.262250
N 0.354309 2.023846 2.337188
H 0.387839 3.053303 2.342801
N 0.224101 -2.019459 -0.153282
O 1.249300 -2.710756 0.007401
O -0.886944 -2.568825 -0.236780
