39

Ir 0.278429 0.027428 -0.196364
H 0.323688 0.012787 -1.963211
H 0.353419 -0.902767 -1.788542
P -2.006213 -0.007805 -0.062935
C -2.677687 0.506749 1.587008
C -2.806151 -1.657531 -0.344142
C -2.446998 -2.345077 -1.661415
C -2.907064 1.094911 -1.259208
C -2.472683 2.560951 -1.243254
C -2.085339 -0.258415 2.772404
H -2.448416 1.588778 1.680570
H -3.783978 0.404016 1.534323
H -2.477613 -2.287954 0.507469
H -3.902510 -1.496328 -0.248682
H -2.729579 0.650572 -2.261693
H -3.993786 0.987848 -1.047716
H -1.362157 -2.565099 -1.699177
H -2.987404 -3.309169 -1.750020
H -2.711995 -1.733186 -2.548451
H -2.652881 3.036041 -0.257363
H -1.389339 2.647439 -1.461433
H -3.032482 3.144354 -2.002418
H -2.272279 -1.348671 2.706378
H -0.987720 -0.117876 2.815269
H -2.524181 0.106158 3.723239
N 2.439301 -0.014611 -0.174236
C 4.566691 -0.677351 0.112217
C 3.246322 -1.062646 0.230971
N 4.539942 0.619041 -0.368750
C 3.240504 0.989027 -0.530511
H 5.350968 1.205147 -0.567134
H 5.500636 -1.204556 0.327960
H 2.804340 -2.002447 0.582080
H 2.907134 1.967052 -0.891513
C 0.288469 1.681453 0.691685
N 0.287494 2.640147 1.473807
H 0.290932 3.600845 1.101572
C 0.284906 -1.890874 0.570602
N 0.303774 -2.962439 1.071239
