53

Ir 1.166806 -0.086560 0.124641
H 1.215851 -0.540557 1.820036
H 1.228446 0.424982 1.863063
P -1.119200 -0.002995 0.052811
C -1.434952 -2.701646 0.761342
C -1.946039 -1.655435 -0.035875
C -1.847154 0.921356 -1.366161
C -1.172675 0.906674 -2.603053
C -1.736547 1.547333 -3.715287
C -2.966008 2.217262 -3.598017
C -3.633525 2.244652 -2.363159
C -3.078313 1.597396 -1.247567
C -1.888180 0.782895 1.537800
C -1.400604 2.039657 1.959646
C -1.977521 2.674400 3.068785
C -3.032563 2.064603 3.769176
C -3.515202 0.814462 3.353266
C -2.948327 0.173392 2.238997
C -3.073984 -1.891610 -0.847259
C -3.682957 -3.157217 -0.856174
C -3.177107 -4.191365 -0.053542
C -2.052331 -3.960287 0.756224
H -0.535532 -2.522748 1.371261
H -0.193359 0.408822 -2.674361
H -1.203339 1.535161 -4.678232
H -3.401548 2.727881 -4.470914
H -4.592094 2.776955 -2.263533
H -3.601723 1.625436 -0.279573
H -0.570292 2.512599 1.409258
H -1.594377 3.654989 3.391009
H -3.478054 2.564943 4.643019
H -4.339854 0.329535 3.898205
H -3.333488 -0.805750 1.917669
H -3.476267 -1.087002 -1.480411
H -4.558148 -3.334535 -1.500057
H -3.655588 -5.182862 -0.064236
H -1.645607 -4.769713 1.381772
N 3.352642 -0.037375 0.149443
C 6.159253 -0.023654 0.239388
C 5.435592 -1.166966 0.608478
C 4.038716 -1.135368 0.549431
C 4.047089 1.068141 -0.210798
C 5.445723 1.109010 -0.176378
H 7.259350 -0.017548 0.273830
H 5.940353 -2.085663 0.940234
H 3.424723 -2.005162 0.825271
H 3.429228 1.927246 -0.521377
H 5.960998 2.032179 -0.478950
C 1.213342 -1.587794 -1.021370
O 1.262984 -2.480528 -1.783479
C 1.127135 1.929351 -0.339663
C 1.100948 3.127897 -0.661544
H 1.069041 4.163872 -0.970892
