56

Ir -0.791103 -0.520722 -0.235912
H -0.600527 -1.046932 -1.852097
H -0.801542 -0.122245 -2.022662
P 1.478814 0.017756 -0.029213
C 2.369586 -2.622816 -0.305185
C 2.624791 -1.383046 0.317604
C 1.807831 1.245234 1.305158
C 0.976964 1.253616 2.443648
C 1.222301 2.159590 3.485385
C 2.291401 3.066000 3.396165
C 3.115593 3.067536 2.259264
C 2.875370 2.162814 1.213340
C 2.181644 0.819149 -1.532928
C 1.488772 1.932159 -2.060186
C 1.980873 2.582587 -3.199997
C 3.154473 2.126655 -3.826043
C 3.839075 1.017487 -3.306328
C 3.357921 0.363217 -2.159488
C 3.750738 -1.244376 1.154668
C 4.614546 -2.332530 1.357024
C 4.363847 -3.560970 0.724928
C 3.240455 -3.703656 -0.106344
H 1.471178 -2.736441 -0.931615
H 0.122846 0.560354 2.489561
H 0.562491 2.168622 4.366307
H 2.475585 3.783326 4.210720
H 3.947250 3.784424 2.179755
H 3.513741 2.178528 0.316522
H 0.562666 2.277813 -1.571640
H 1.439598 3.451468 -3.604872
H 3.534861 2.637785 -4.723929
H 4.757085 0.655230 -3.794329
H 3.899716 -0.504307 -1.753535
H 3.951401 -0.284996 1.654736
H 5.488841 -2.217995 2.016175
H 5.042153 -4.412901 0.886902
H 3.032127 -4.667851 -0.594707
As -3.224311 -0.862099 -0.242185
C -3.838455 -2.704783 -0.476515
C -4.216561 0.147502 -1.587904
C -4.090526 -0.300017 1.415115
H -3.532480 -3.056365 -1.480251
H -4.938816 -2.771847 -0.371323
H -3.339412 -3.333778 0.285270
H -3.783387 -0.053093 -2.585826
H -4.116186 1.224977 -1.346979
H -5.284956 -0.143484 -1.570160
H -3.608693 -0.822227 2.262805
H -5.171892 -0.537562 1.384460
H -3.949376 0.794885 1.519662
C -0.649265 -1.911747 0.994744
N -0.573248 -2.939930 1.667728
H -0.604662 -2.937721 2.693918
N -1.270450 1.587500 -0.075119
C -2.107278 2.417414 0.158214
S -3.259586 3.518484 0.462396
