59

Ir 1.045982 0.302371 -0.045442
H 0.886237 1.346112 -1.411635
H 1.006514 0.495508 -1.847851
P -1.321842 0.032320 -0.047987
C -1.744106 2.723028 0.672728
C -2.243271 1.407776 0.778281
C -1.927294 -1.464071 0.839900
C -1.291174 -1.817259 2.046965
C -1.751762 -2.912234 2.790372
C -2.844746 -3.667138 2.332267
C -3.478211 -3.319302 1.129034
C -3.024844 -2.218994 0.383632
C -2.108703 -0.048051 -1.718611
C -1.685332 -1.054454 -2.616193
C -2.239083 -1.121433 -3.902606
C -3.208332 -0.189053 -4.310697
C -3.628121 0.811953 -3.421801
C -3.084483 0.883393 -2.128374
C -3.448762 1.180504 1.474177
C -4.143243 2.254579 2.052216
C -3.645355 3.562561 1.937667
C -2.445277 3.794288 1.246093
H -0.790872 2.894973 0.148952
H -0.424167 -1.232824 2.392121
H -1.247423 -3.184281 3.730357
H -3.199920 -4.532597 2.912676
H -4.331299 -3.910803 0.762308
H -3.520857 -1.954217 -0.562297
H -0.930099 -1.786693 -2.289210
H -1.906815 -1.911958 -4.593175
H -3.637183 -0.243888 -5.323344
H -4.387839 1.545830 -3.732512
H -3.423281 1.669808 -1.437973
H -3.843996 0.157975 1.569624
H -5.079712 2.065529 2.599358
H -4.190661 4.402721 2.394764
H -2.044723 4.816074 1.160198
C 3.110522 0.343592 -0.004526
C 5.357736 0.751288 -0.541828
C 5.263713 -0.467821 0.383559
H 5.908771 0.542324 -1.481847
H 5.955894 -0.421385 1.248975
C 3.391677 -1.469167 1.702263
H 3.962478 -1.438904 2.653609
H 2.318287 -1.305761 1.907671
H 3.505341 -2.466904 1.226757
C 3.601605 2.115002 -1.715512
H 3.662326 1.794079 -2.778592
H 2.575005 2.462766 -1.503151
H 4.300100 2.966437 -1.567416
N 3.945545 1.043289 -0.810928
N 3.864731 -0.427354 0.816685
H 5.446330 -1.422756 -0.160732
H 5.839815 1.629713 -0.052412
C 0.999455 1.124588 1.628202
O 0.988033 1.625859 2.691644
N 1.319219 -1.820544 -0.722705
O 0.343367 -2.590891 -0.777554
O 2.453182 -2.226647 -1.032962
