47

Ir 0.034931 -0.145753 -0.304868
H -0.013633 -0.716227 -2.050205
H 0.001406 -1.518475 -1.717217
P -2.272501 -0.181289 0.008048
C -2.854775 0.914315 1.391969
C -3.023202 -1.822223 0.438280
C -2.770863 -2.930749 -0.584410
C -3.318774 0.377312 -1.427327
C -2.951080 1.745752 -2.002739
C -2.150060 0.654949 2.724937
H -2.662731 1.952604 1.047568
H -3.957716 0.797587 1.476742
H -2.564941 -2.101745 1.409251
H -4.109541 -1.650811 0.605071
H -3.198905 -0.409737 -2.202105
H -4.380927 0.342594 -1.097547
H -1.683447 -3.117542 -0.684265
H -3.246019 -3.876462 -0.252606
H -3.182866 -2.687553 -1.585451
H -3.071084 2.558044 -1.257511
H -1.894412 1.763432 -2.335024
H -3.596756 1.991471 -2.870479
H -2.358995 -0.362023 3.113446
H -1.050891 0.734106 2.600856
H -2.479064 1.384531 3.493004
As 2.470221 -0.150508 -0.122636
C 3.360894 -1.782798 -0.730300
C 3.097133 0.000328 1.723258
C 3.482285 1.266352 -1.027396
H 2.880866 -2.624523 -0.195146
H 4.447198 -1.751122 -0.517544
H 3.190292 -1.899403 -1.817661
H 2.587845 -0.797745 2.296693
H 2.783819 0.985145 2.118979
H 4.197770 -0.106149 1.788145
H 3.341052 1.160614 -2.119989
H 4.560261 1.212187 -0.778854
H 3.066460 2.243316 -0.714652
C 0.020962 1.740168 -0.215492
N 0.030764 2.952933 -0.046190
C 0.076752 3.823201 1.095639
H -0.843045 4.444749 1.142891
H 0.931794 4.526881 1.011781
H 0.171090 3.264090 2.054529
C 0.210247 -1.835211 0.875861
C 0.371829 -2.795850 1.645533
H 0.492247 -3.636592 2.314903
