30

Ir -0.264146 -0.217252 -0.172190
H -0.258972 -0.629629 -1.844448
H -0.138736 0.309650 -1.954147
N 1.807025 -0.407790 -0.174626
C 3.856766 -1.316167 -0.367795
C 2.503364 -1.575590 -0.439208
N 3.959861 0.024431 -0.056524
C 2.712284 0.550713 0.057616
H 4.823676 0.551834 0.073238
H 4.729577 -1.960161 -0.507690
H 1.977574 -2.510082 -0.654985
H 2.514266 1.601164 0.303310
N -2.412191 0.113311 -0.160013
C -2.766785 1.152513 -1.168197
C -3.167023 -1.129979 -0.464668
C -2.801197 0.613915 1.189975
H -2.860478 -1.512558 -1.454946
H -4.260616 -0.922344 -0.466128
H -2.940341 -1.900182 0.294101
H -2.203909 1.517725 1.409128
H -2.574690 -0.159229 1.945821
H -3.888787 0.849088 1.208152
H -2.529984 0.775705 -2.179799
H -2.161723 2.054742 -0.964492
H -3.852738 1.383713 -1.105590
C -0.406286 -1.654306 0.977682
O -0.480368 -2.602367 1.676913
N -0.134765 1.949594 0.202168
C 0.656793 2.828544 0.455779
O 1.467636 3.690402 0.702209
