38

Ir 0.061173 -0.475079 0.107713
H 0.223824 -1.246506 1.627390
H 0.057285 -0.358720 1.945391
P -2.260137 -0.939726 0.095669
C -3.151792 -0.190753 -1.326078
C -3.189988 -0.314279 1.552947
C -2.705420 -2.725065 0.008267
H -3.086101 0.913662 -1.246147
H -4.218655 -0.492958 -1.323759
H -2.671233 -0.517110 -2.268334
H -3.134761 0.793522 1.561597
H -2.732043 -0.708252 2.480657
H -4.252907 -0.625259 1.499284
H -2.243772 -3.165866 -0.897143
H -3.804335 -2.869000 -0.025842
H -2.289497 -3.244683 0.893438
C 2.033900 0.167917 0.054528
C 4.258841 0.579525 0.680389
C 3.910587 1.446634 -0.539186
H 4.388334 1.183921 1.607882
H 4.468133 1.144190 -1.455739
C 1.761741 1.862393 -1.776518
H 2.311985 1.747662 -2.736669
H 0.753210 1.424342 -1.868329
H 1.653153 2.943717 -1.551215
C 3.030725 -1.302326 1.820311
H 2.830738 -0.878561 2.831161
H 2.233396 -2.027307 1.574710
H 4.002835 -1.835813 1.851518
N 3.077384 -0.281705 0.799856
N 2.478911 1.184836 -0.717677
H 4.098692 2.527734 -0.374257
H 5.179758 -0.024123 0.541267
C 0.333431 -1.637725 -1.310170
O 0.495148 -2.416778 -2.177294
N -0.564344 1.601179 0.256905
C -1.444768 2.417180 0.257431
S -2.656543 3.498466 0.257338
