31

Ir -0.334387 0.124985 -0.248716
H -0.396212 0.198143 -1.960543
H -0.378739 -0.749057 -1.854836
P -2.655239 -0.018670 -0.027092
C -3.142011 -0.398165 1.699435
C -3.393582 -1.373395 -1.018802
C -3.611907 1.485635 -0.475249
H -2.574737 -1.305730 1.988287
H -4.233977 -0.567601 1.787971
H -2.832266 0.440623 2.351969
H -2.843756 -2.295329 -0.742015
H -3.233494 -1.168080 -2.095022
H -4.477053 -1.481726 -0.811522
H -3.226354 2.341649 0.112193
H -4.694837 1.349281 -0.280458
H -3.451293 1.707309 -1.548228
P 1.977499 0.053133 -0.140931
C 5.090285 -0.129564 0.108535
C 4.331880 -1.306335 0.259299
C 2.935788 -1.357430 0.172648
C 3.131263 1.340459 -0.278479
C 4.510630 1.126419 -0.144692
H 6.185567 -0.194854 0.195618
H 4.869120 -2.248351 0.462492
H 2.375645 -2.295662 0.315982
H 2.741896 2.351995 -0.474376
H 5.180202 1.997439 -0.245147
C -0.359979 1.783540 0.604368
N -0.394373 2.940057 1.020461
H -0.374406 3.175886 2.019881
Cl -0.406762 -2.294359 0.573154
